LIG
     RDKit          3D

 41 42  0  0  0  0  0  0  0  0999 V2000
   35.0580    8.5954    4.0899 C   0  0  0  0  0  0  0  0  0  0  0  0
   35.2064   10.0706    4.2337 C   0  0  0  0  0  0  0  0  0  0  0  0
   36.1814   10.6719    3.7763 O   0  0  0  0  0  0  0  0  0  0  0  0
   34.2457   10.7969    4.8322 N   0  0  0  0  0  0  0  0  0  0  0  0
   33.1950   10.5045    5.6982 C   0  0  0  0  0  0  0  0  0  0  0  0
   32.8881    9.3258    6.3480 C   0  0  0  0  0  0  0  0  0  0  0  0
   31.8709    9.3054    7.3188 C   0  0  0  0  0  0  0  0  0  0  0  0
   31.4860    8.0933    8.0573 C   0  0  0  0  0  0  0  0  0  0  0  0
   31.2306   10.4579    7.6981 C   0  0  0  0  0  0  0  0  0  0  0  0
   31.5552   11.6035    7.0475 C   0  0  0  0  0  0  0  0  0  0  0  0
   31.0162   12.7221    7.5479 O   0  0  0  0  0  0  0  0  0  0  0  0
   31.8901   13.7953    7.3999 C   0  0  0  0  0  0  0  0  0  0  0  0
   33.3463   13.7377    7.8745 C   0  0  0  0  0  0  0  0  0  0  0  0
   33.5294   13.4703    9.0649 O   0  0  0  0  0  0  0  0  0  0  0  0
   34.4037   13.9496    6.9880 N   0  0  0  0  0  0  0  0  0  0  0  0
   35.7244   14.0067    7.6048 C   0  0  0  0  0  0  0  0  0  0  0  0
   36.7994   13.6099    6.5971 C   0  0  0  0  0  0  0  0  0  0  0  0
   36.8167   14.5411    5.5053 O   0  0  0  0  0  0  0  0  0  0  0  0
   35.5726   14.4769    4.8032 C   0  0  0  0  0  0  0  0  0  0  0  0
   34.3613   14.6967    5.7257 C   0  0  0  0  0  0  0  0  0  0  0  0
   32.4354   11.6063    5.9894 C   0  0  0  0  0  0  0  0  0  0  0  0
   35.6923    8.2516    3.2667 H   0  0  0  0  0  0  0  0  0  0  0  0
   35.3839    8.0984    5.0042 H   0  0  0  0  0  0  0  0  0  0  0  0
   34.0309    8.3312    3.8380 H   0  0  0  0  0  0  0  0  0  0  0  0
   34.4736   11.7775    4.7461 H   0  0  0  0  0  0  0  0  0  0  0  0
   33.4482    8.4224    6.1651 H   0  0  0  0  0  0  0  0  0  0  0  0
   32.0957    7.9555    8.9453 H   0  0  0  0  0  0  0  0  0  0  0  0
   31.5950    7.2749    7.3695 H   0  0  0  0  0  0  0  0  0  0  0  0
   30.4333    8.1164    8.3629 H   0  0  0  0  0  0  0  0  0  0  0  0
   30.4982   10.4695    8.5038 H   0  0  0  0  0  0  0  0  0  0  0  0
   31.8265   14.1151    6.3639 H   0  0  0  0  0  0  0  0  0  0  0  0
   31.4343   14.5361    8.0615 H   0  0  0  0  0  0  0  0  0  0  0  0
   35.7837   13.3775    8.4951 H   0  0  0  0  0  0  0  0  0  0  0  0
   35.8625   15.0382    7.9397 H   0  0  0  0  0  0  0  0  0  0  0  0
   37.7885   13.6077    7.0641 H   0  0  0  0  0  0  0  0  0  0  0  0
   36.6303   12.6049    6.1954 H   0  0  0  0  0  0  0  0  0  0  0  0
   35.5104   13.5085    4.2994 H   0  0  0  0  0  0  0  0  0  0  0  0
   35.5868   15.2428    4.0211 H   0  0  0  0  0  0  0  0  0  0  0  0
   34.3751   15.7295    6.0487 H   0  0  0  0  0  0  0  0  0  0  0  0
   33.4373   14.5173    5.1773 H   0  0  0  0  0  0  0  0  0  0  0  0
   32.5821   12.4965    5.3955 H   0  0  0  0  0  0  0  0  0  0  0  0
  1  2  1  0
  2  3  2  0
  2  4  1  0
  4  5  1  0
  5  6  2  0
  6  7  1  0
  7  8  1  0
  7  9  2  0
  9 10  1  0
 10 11  1  0
 11 12  1  0
 12 13  1  0
 13 14  2  0
 13 15  1  0
 15 16  1  0
 16 17  1  0
 17 18  1  0
 18 19  1  0
 19 20  1  0
 10 21  2  0
 21  5  1  0
 20 15  1  0
  1 22  1  0
  1 23  1  0
  1 24  1  0
  4 25  1  0
  6 26  1  0
  8 27  1  0
  8 28  1  0
  8 29  1  0
  9 30  1  0
 12 31  1  0
 12 32  1  0
 16 33  1  0
 16 34  1  0
 17 35  1  0
 17 36  1  0
 19 37  1  0
 19 38  1  0
 20 39  1  0
 20 40  1  0
 21 41  1  0
M  END
