LIG
     RDKit          3D

 28 28  0  0  0  0  0  0  0  0999 V2000
   28.6291   16.0561    8.0159 N   0  0  0  0  0  0  0  0  0  0  0  0
   28.5781   14.9007    8.0663 C   0  0  0  0  0  0  0  0  0  0  0  0
   28.5512   13.4546    8.1712 C   0  0  0  0  0  0  0  0  0  0  0  0
   29.7499   12.8736    7.4625 C   0  0  0  0  0  0  0  0  0  0  0  0
   29.9536   13.0787    6.2657 O   0  0  0  0  0  0  0  0  0  0  0  0
   30.5146   12.0407    8.2674 N   0  0  0  0  0  0  0  0  0  0  0  0
   31.4152   11.1397    7.6635 C   0  0  0  0  0  0  0  0  0  0  0  0
   31.1672    9.7888    7.9098 C   0  0  0  0  0  0  0  0  0  0  0  0
   31.8853    8.8272    7.2200 C   0  0  0  0  0  0  0  0  0  0  0  0
   32.8388    9.2042    6.2681 C   0  0  0  0  0  0  0  0  0  0  0  0
   33.1189   10.5439    6.0455 C   0  0  0  0  0  0  0  0  0  0  0  0
   32.4526   11.5201    6.7844 C   0  0  0  0  0  0  0  0  0  0  0  0
   32.9859   12.8320    6.6990 N   0  0  0  0  0  0  0  0  0  0  0  0
   33.7579   13.3059    7.7623 C   0  0  0  0  0  0  0  0  0  0  0  0
   33.7130   12.8844    8.9185 O   0  0  0  0  0  0  0  0  0  0  0  0
   34.7658   14.3941    7.3520 C   0  0  0  0  0  0  0  0  0  0  0  0
   34.6833   14.7836    5.9868 O   0  0  0  0  0  0  0  0  0  0  0  0
   28.5229   13.1613    9.2228 H   0  0  0  0  0  0  0  0  0  0  0  0
   27.6619   13.0407    7.6877 H   0  0  0  0  0  0  0  0  0  0  0  0
   30.0266   11.6921    9.0956 H   0  0  0  0  0  0  0  0  0  0  0  0
   30.3885    9.4669    8.5967 H   0  0  0  0  0  0  0  0  0  0  0  0
   31.6798    7.7809    7.4182 H   0  0  0  0  0  0  0  0  0  0  0  0
   33.4047    8.4551    5.7274 H   0  0  0  0  0  0  0  0  0  0  0  0
   33.9174   10.8116    5.3594 H   0  0  0  0  0  0  0  0  0  0  0  0
   33.4419   13.0744    5.8215 H   0  0  0  0  0  0  0  0  0  0  0  0
   34.5878   15.2622    7.9889 H   0  0  0  0  0  0  0  0  0  0  0  0
   35.7745   14.0136    7.5356 H   0  0  0  0  0  0  0  0  0  0  0  0
   34.9218   15.7374    5.9441 H   0  0  0  0  0  0  0  0  0  0  0  0
  1  2  3  0
  2  3  1  0
  3  4  1  0
  4  5  2  0
  4  6  1  0
  6  7  1  0
  7  8  2  0
  8  9  1  0
  9 10  2  0
 10 11  1  0
 11 12  2  0
 12 13  1  0
 13 14  1  0
 14 15  2  0
 14 16  1  0
 16 17  1  0
 12  7  1  0
  3 18  1  0
  3 19  1  0
  6 20  1  0
  8 21  1  0
  9 22  1  0
 10 23  1  0
 11 24  1  0
 13 25  1  0
 16 26  1  0
 16 27  1  0
 17 28  1  0
M  END
