LIG
     RDKit          3D

 41 42  0  0  0  0  0  0  0  0999 V2000
   -4.9746   -3.0464   -1.0565 C   0  0  0  0  0  0  0  0  0  0  0  0
   -4.8148   -1.5647   -0.8207 C   0  0  0  0  0  0  0  0  0  0  0  0
   -5.7884   -0.8210   -0.8316 O   0  0  0  0  0  0  0  0  0  0  0  0
   -3.4908   -1.2088   -0.6317 N   0  0  0  0  0  0  0  0  0  0  0  0
   -2.9710    0.0831   -0.3938 C   0  0  0  0  0  0  0  0  0  0  0  0
   -3.7577    1.2347   -0.3195 C   0  0  0  0  0  0  0  0  0  0  0  0
   -3.1761    2.4860   -0.0718 C   0  0  0  0  0  0  0  0  0  0  0  0
   -4.0247    3.7226   -0.0298 C   0  0  0  0  0  0  0  0  0  0  0  0
   -1.7886    2.5751    0.0775 C   0  0  0  0  0  0  0  0  0  0  0  0
   -0.9864    1.4353    0.0063 C   0  0  0  0  0  0  0  0  0  0  0  0
    0.3485    1.6739    0.1799 O   0  0  0  0  0  0  0  0  0  0  0  0
    1.2335    0.5654    0.1018 C   0  0  0  0  0  0  0  0  0  0  0  0
    2.6918    1.0033    0.3057 C   0  0  0  0  0  0  0  0  0  0  0  0
    3.0156    2.1892    0.3835 O   0  0  0  0  0  0  0  0  0  0  0  0
    3.6377   -0.0121    0.3999 N   0  0  0  0  0  0  0  0  0  0  0  0
    5.0364    0.3342    0.6667 C   0  0  0  0  0  0  0  0  0  0  0  0
    5.7250   -0.7662    1.4797 C   0  0  0  0  0  0  0  0  0  0  0  0
    5.6845   -2.0626    0.8626 O   0  0  0  0  0  0  0  0  0  0  0  0
    4.6185   -2.2315   -0.0787 C   0  0  0  0  0  0  0  0  0  0  0  0
    3.3558   -1.4453    0.2885 C   0  0  0  0  0  0  0  0  0  0  0  0
   -1.5806    0.1927   -0.2272 C   0  0  0  0  0  0  0  0  0  0  0  0
   -6.0086   -3.3384   -0.8508 H   0  0  0  0  0  0  0  0  0  0  0  0
   -4.3217   -3.6185   -0.3910 H   0  0  0  0  0  0  0  0  0  0  0  0
   -4.7342   -3.2762   -2.0979 H   0  0  0  0  0  0  0  0  0  0  0  0
   -2.8141   -1.9592   -0.6709 H   0  0  0  0  0  0  0  0  0  0  0  0
   -4.8347    1.1892   -0.4519 H   0  0  0  0  0  0  0  0  0  0  0  0
   -3.5931    4.4694    0.6448 H   0  0  0  0  0  0  0  0  0  0  0  0
   -4.1050    4.1549   -1.0320 H   0  0  0  0  0  0  0  0  0  0  0  0
   -5.0304    3.4954    0.3394 H   0  0  0  0  0  0  0  0  0  0  0  0
   -1.3195    3.5420    0.2519 H   0  0  0  0  0  0  0  0  0  0  0  0
    0.9861   -0.1568    0.8882 H   0  0  0  0  0  0  0  0  0  0  0  0
    1.1642    0.1109   -0.8927 H   0  0  0  0  0  0  0  0  0  0  0  0
    5.5224    0.4446   -0.3095 H   0  0  0  0  0  0  0  0  0  0  0  0
    5.1038    1.2921    1.1922 H   0  0  0  0  0  0  0  0  0  0  0  0
    5.2492   -0.8608    2.4631 H   0  0  0  0  0  0  0  0  0  0  0  0
    6.7767   -0.5134    1.6474 H   0  0  0  0  0  0  0  0  0  0  0  0
    4.3944   -3.3016   -0.1355 H   0  0  0  0  0  0  0  0  0  0  0  0
    4.9893   -1.9218   -1.0631 H   0  0  0  0  0  0  0  0  0  0  0  0
    2.5731   -1.6183   -0.4548 H   0  0  0  0  0  0  0  0  0  0  0  0
    2.9828   -1.7670    1.2675 H   0  0  0  0  0  0  0  0  0  0  0  0
   -0.9746   -0.7035   -0.2847 H   0  0  0  0  0  0  0  0  0  0  0  0
  1  2  1  0
  2  3  2  0
  2  4  1  0
  4  5  1  0
  5  6  2  0
  6  7  1  0
  7  8  1  0
  7  9  2  0
  9 10  1  0
 10 11  1  0
 11 12  1  0
 12 13  1  0
 13 14  2  0
 13 15  1  0
 15 16  1  0
 16 17  1  0
 17 18  1  0
 18 19  1  0
 19 20  1  0
 10 21  2  0
 21  5  1  0
 20 15  1  0
  1 22  1  0
  1 23  1  0
  1 24  1  0
  4 25  1  0
  6 26  1  0
  8 27  1  0
  8 28  1  0
  8 29  1  0
  9 30  1  0
 12 31  1  0
 12 32  1  0
 16 33  1  0
 16 34  1  0
 17 35  1  0
 17 36  1  0
 19 37  1  0
 19 38  1  0
 20 39  1  0
 20 40  1  0
 21 41  1  0
M  END
