LIG
     RDKit          3D

 40 41  0  0  0  0  0  0  0  0999 V2000
   30.7968    8.3233    8.1167 C   0  0  0  0  0  0  0  0  0  0  0  0
   31.4348    9.5090    7.4803 C   0  0  0  0  0  0  0  0  0  0  0  0
   31.0414   10.7511    7.9090 C   0  0  0  0  0  0  0  0  0  0  0  0
   31.6982   11.8630    7.4137 C   0  0  0  0  0  0  0  0  0  0  0  0
   31.2952   13.1618    7.6245 O   0  0  0  0  0  0  0  0  0  0  0  0
   30.2251   13.2987    8.5230 C   0  0  0  0  0  0  0  0  0  0  0  0
   28.8787   12.8713    7.9215 C   0  0  0  0  0  0  0  0  0  0  0  0
   28.4225   14.1178    7.2355 C   0  0  0  0  0  0  0  0  0  0  0  0
   28.8018   15.1330    8.1727 N   0  0  0  0  0  0  0  0  0  0  0  0
   27.7986   15.7800    8.9386 C   0  0  0  0  0  0  0  0  0  0  0  0
   29.9439   14.7389    8.8882 C   0  0  0  0  0  0  0  0  0  0  0  0
   30.5368   15.4096    9.7228 O   0  0  0  0  0  0  0  0  0  0  0  0
   32.8277   11.6803    6.6152 C   0  0  0  0  0  0  0  0  0  0  0  0
   33.7263   12.7503    6.4401 N   0  0  0  0  0  0  0  0  0  0  0  0
   34.2286   13.4020    7.5683 C   0  0  0  0  0  0  0  0  0  0  0  0
   33.9333   13.1133    8.7337 O   0  0  0  0  0  0  0  0  0  0  0  0
   35.1997   14.5276    7.2828 C   0  0  0  0  0  0  0  0  0  0  0  0
   35.6964   14.6403    5.5424 S   0  0  0  0  0  0  0  0  0  0  0  0
   33.0883   10.4064    6.1175 C   0  0  0  0  0  0  0  0  0  0  0  0
   34.1766   10.1335    5.1260 C   0  0  0  0  0  0  0  0  0  0  0  0
   32.3893    9.3274    6.5410 N   0  0  0  0  0  0  0  0  0  0  0  0
   31.0909    8.2469    9.1666 H   0  0  0  0  0  0  0  0  0  0  0  0
   29.7065    8.3742    8.0601 H   0  0  0  0  0  0  0  0  0  0  0  0
   31.1499    7.4467    7.5904 H   0  0  0  0  0  0  0  0  0  0  0  0
   30.2384   10.7936    8.6318 H   0  0  0  0  0  0  0  0  0  0  0  0
   30.4565   12.8079    9.4588 H   0  0  0  0  0  0  0  0  0  0  0  0
   28.1824   12.6360    8.7312 H   0  0  0  0  0  0  0  0  0  0  0  0
   28.9042   12.0421    7.2129 H   0  0  0  0  0  0  0  0  0  0  0  0
   28.9746   14.2883    6.3044 H   0  0  0  0  0  0  0  0  0  0  0  0
   27.3538   14.1106    7.0172 H   0  0  0  0  0  0  0  0  0  0  0  0
   28.0102   16.8409    8.8727 H   0  0  0  0  0  0  0  0  0  0  0  0
   27.8106   15.4030    9.9636 H   0  0  0  0  0  0  0  0  0  0  0  0
   26.8157   15.5718    8.5246 H   0  0  0  0  0  0  0  0  0  0  0  0
   34.4171   12.6901    5.6977 H   0  0  0  0  0  0  0  0  0  0  0  0
   36.0911   14.3707    7.8952 H   0  0  0  0  0  0  0  0  0  0  0  0
   34.7204   15.4595    7.5747 H   0  0  0  0  0  0  0  0  0  0  0  0
   35.6844   15.9887    5.4716 H   0  0  0  0  0  0  0  0  0  0  0  0
   34.2949    9.0572    4.9628 H   0  0  0  0  0  0  0  0  0  0  0  0
   33.9251   10.5944    4.1656 H   0  0  0  0  0  0  0  0  0  0  0  0
   35.1373   10.5276    5.4650 H   0  0  0  0  0  0  0  0  0  0  0  0
  1  2  1  0
  2  3  2  0
  3  4  1  0
  4  5  1  0
  5  6  1  0
  6  7  1  0
  7  8  1  0
  8  9  1  0
  9 10  1  0
  9 11  1  0
 11 12  2  0
  4 13  2  0
 13 14  1  0
 14 15  1  0
 15 16  2  0
 15 17  1  0
 17 18  1  0
 13 19  1  0
 19 20  1  0
 19 21  2  0
 21  2  1  0
 11  6  1  0
  1 22  1  0
  1 23  1  0
  1 24  1  0
  3 25  1  0
  6 26  1  0
  7 27  1  0
  7 28  1  0
  8 29  1  0
  8 30  1  0
 10 31  1  0
 10 32  1  0
 10 33  1  0
 14 34  1  0
 17 35  1  0
 17 36  1  0
 18 37  1  0
 20 38  1  0
 20 39  1  0
 20 40  1  0
M  END
