LIG
     RDKit          3D

 38 39  0  0  0  0  0  0  0  0999 V2000
   34.4105   10.3148    5.0309 C   0  0  0  0  0  0  0  0  0  0  0  0
   33.2563   10.4304    5.9802 C   0  0  0  0  0  0  0  0  0  0  0  0
   32.6113    9.2711    6.4129 C   0  0  0  0  0  0  0  0  0  0  0  0
   31.5504    9.3162    7.3123 C   0  0  0  0  0  0  0  0  0  0  0  0
   31.0466   10.5426    7.7164 C   0  0  0  0  0  0  0  0  0  0  0  0
   31.6548   11.7198    7.2797 C   0  0  0  0  0  0  0  0  0  0  0  0
   31.1662   12.9897    7.4820 O   0  0  0  0  0  0  0  0  0  0  0  0
   30.2240   13.1028    8.5196 C   0  0  0  0  0  0  0  0  0  0  0  0
   28.8103   12.7783    8.0314 C   0  0  0  0  0  0  0  0  0  0  0  0
   28.3230   14.0885    7.4991 C   0  0  0  0  0  0  0  0  0  0  0  0
   28.8851   14.9994    8.4456 N   0  0  0  0  0  0  0  0  0  0  0  0
   28.5365   16.3644    8.3881 C   0  0  0  0  0  0  0  0  0  0  0  0
   30.0878   14.5454    8.9673 C   0  0  0  0  0  0  0  0  0  0  0  0
   30.8826   15.2072    9.6192 O   0  0  0  0  0  0  0  0  0  0  0  0
   32.8281   11.6475    6.5142 C   0  0  0  0  0  0  0  0  0  0  0  0
   33.6510   12.7859    6.4083 N   0  0  0  0  0  0  0  0  0  0  0  0
   34.1450   13.3737    7.5762 C   0  0  0  0  0  0  0  0  0  0  0  0
   33.8330   13.0356    8.7231 O   0  0  0  0  0  0  0  0  0  0  0  0
   35.1419   14.4949    7.3516 C   0  0  0  0  0  0  0  0  0  0  0  0
   35.6739   14.6568    5.6221 S   0  0  0  0  0  0  0  0  0  0  0  0
   35.3164   10.7637    5.4456 H   0  0  0  0  0  0  0  0  0  0  0  0
   34.6398    9.2699    4.7959 H   0  0  0  0  0  0  0  0  0  0  0  0
   34.1652   10.8179    4.0897 H   0  0  0  0  0  0  0  0  0  0  0  0
   32.9795    8.3069    6.0866 H   0  0  0  0  0  0  0  0  0  0  0  0
   31.0967    8.3922    7.6675 H   0  0  0  0  0  0  0  0  0  0  0  0
   30.1811   10.5275    8.3678 H   0  0  0  0  0  0  0  0  0  0  0  0
   30.5311   12.5315    9.3785 H   0  0  0  0  0  0  0  0  0  0  0  0
   28.1947   12.5184    8.8940 H   0  0  0  0  0  0  0  0  0  0  0  0
   28.7383   11.9965    7.2731 H   0  0  0  0  0  0  0  0  0  0  0  0
   27.2351   14.1590    7.4898 H   0  0  0  0  0  0  0  0  0  0  0  0
   28.7237   14.3049    6.5026 H   0  0  0  0  0  0  0  0  0  0  0  0
   28.4955   16.6560    7.3434 H   0  0  0  0  0  0  0  0  0  0  0  0
   27.5866   16.4465    8.9113 H   0  0  0  0  0  0  0  0  0  0  0  0
   29.2753   16.9939    8.8511 H   0  0  0  0  0  0  0  0  0  0  0  0
   34.3486   12.7977    5.6702 H   0  0  0  0  0  0  0  0  0  0  0  0
   36.0224   14.3004    7.9698 H   0  0  0  0  0  0  0  0  0  0  0  0
   34.6761   15.4241    7.6725 H   0  0  0  0  0  0  0  0  0  0  0  0
   35.6492   16.0056    5.5834 H   0  0  0  0  0  0  0  0  0  0  0  0
  1  2  1  0
  2  3  2  0
  3  4  1  0
  4  5  2  0
  5  6  1  0
  6  7  1  0
  7  8  1  0
  8  9  1  0
  9 10  1  0
 10 11  1  0
 11 12  1  0
 11 13  1  0
 13 14  2  0
  6 15  2  0
 15 16  1  0
 16 17  1  0
 17 18  2  0
 17 19  1  0
 19 20  1  0
 15  2  1  0
 13  8  1  0
  1 21  1  0
  1 22  1  0
  1 23  1  0
  3 24  1  0
  4 25  1  0
  5 26  1  0
  8 27  1  0
  9 28  1  0
  9 29  1  0
 10 30  1  0
 10 31  1  0
 12 32  1  0
 12 33  1  0
 12 34  1  0
 16 35  1  0
 19 36  1  0
 19 37  1  0
 20 38  1  0
M  END
