LIG
     RDKit          3D

 38 39  0  0  0  0  0  0  0  0999 V2000
   35.2641    8.5934    3.9568 C   0  0  0  0  0  0  0  0  0  0  0  0
   34.5675    9.6227    4.7966 C   0  0  0  0  0  0  0  0  0  0  0  0
   34.7682   10.8180    4.5995 O   0  0  0  0  0  0  0  0  0  0  0  0
   33.7012    9.0277    5.7122 N   0  0  0  0  0  0  0  0  0  0  0  0
   32.6920    9.6616    6.4613 C   0  0  0  0  0  0  0  0  0  0  0  0
   32.3594   10.9432    6.1634 C   0  0  0  0  0  0  0  0  0  0  0  0
   31.3399   11.5546    6.8644 C   0  0  0  0  0  0  0  0  0  0  0  0
   30.9376   12.7429    6.3912 O   0  0  0  0  0  0  0  0  0  0  0  0
   31.9156   13.6874    6.6562 C   0  0  0  0  0  0  0  0  0  0  0  0
   33.2956   13.6059    7.3230 C   0  0  0  0  0  0  0  0  0  0  0  0
   33.3305   13.3857    8.5386 O   0  0  0  0  0  0  0  0  0  0  0  0
   34.4244   13.8541    6.5639 N   0  0  0  0  0  0  0  0  0  0  0  0
   35.6609   14.0785    7.3007 C   0  0  0  0  0  0  0  0  0  0  0  0
   36.8526   13.6177    6.4734 C   0  0  0  0  0  0  0  0  0  0  0  0
   36.9376   14.4117    5.2820 O   0  0  0  0  0  0  0  0  0  0  0  0
   35.8018   14.1227    4.4569 C   0  0  0  0  0  0  0  0  0  0  0  0
   34.4611   14.3455    5.1780 C   0  0  0  0  0  0  0  0  0  0  0  0
   30.6416   10.9696    7.9022 C   0  0  0  0  0  0  0  0  0  0  0  0
   30.9415    9.6654    8.2034 C   0  0  0  0  0  0  0  0  0  0  0  0
   31.9364    9.0264    7.4666 C   0  0  0  0  0  0  0  0  0  0  0  0
   32.1734    7.7643    7.7933 F   0  0  0  0  0  0  0  0  0  0  0  0
   35.7208    7.8263    4.5878 H   0  0  0  0  0  0  0  0  0  0  0  0
   34.5470    8.1306    3.2732 H   0  0  0  0  0  0  0  0  0  0  0  0
   36.0563    9.0699    3.3720 H   0  0  0  0  0  0  0  0  0  0  0  0
   33.8030    8.0181    5.8684 H   0  0  0  0  0  0  0  0  0  0  0  0
   32.8112   11.4815    5.3406 H   0  0  0  0  0  0  0  0  0  0  0  0
   32.0031   14.2602    5.7346 H   0  0  0  0  0  0  0  0  0  0  0  0
   31.3882   14.2677    7.4196 H   0  0  0  0  0  0  0  0  0  0  0  0
   35.6511   13.5694    8.2680 H   0  0  0  0  0  0  0  0  0  0  0  0
   35.7097   15.1539    7.4924 H   0  0  0  0  0  0  0  0  0  0  0  0
   37.7884   13.7158    7.0286 H   0  0  0  0  0  0  0  0  0  0  0  0
   36.7664   12.5629    6.1903 H   0  0  0  0  0  0  0  0  0  0  0  0
   35.8844   13.0878    4.1086 H   0  0  0  0  0  0  0  0  0  0  0  0
   35.8560   14.7629    3.5703 H   0  0  0  0  0  0  0  0  0  0  0  0
   33.6576   13.8959    4.5892 H   0  0  0  0  0  0  0  0  0  0  0  0
   34.2785   15.4153    5.2439 H   0  0  0  0  0  0  0  0  0  0  0  0
   29.8521   11.4997    8.4230 H   0  0  0  0  0  0  0  0  0  0  0  0
   30.4123    9.1219    8.9797 H   0  0  0  0  0  0  0  0  0  0  0  0
  1  2  1  0
  2  3  2  0
  2  4  1  0
  4  5  1  0
  5  6  2  0
  6  7  1  0
  7  8  1  0
  8  9  1  0
  9 10  1  0
 10 11  2  0
 10 12  1  0
 12 13  1  0
 13 14  1  0
 14 15  1  0
 15 16  1  0
 16 17  1  0
  7 18  2  0
 18 19  1  0
 19 20  2  0
 20 21  1  0
 20  5  1  0
 17 12  1  0
  1 22  1  0
  1 23  1  0
  1 24  1  0
  4 25  1  0
  6 26  1  0
  9 27  1  0
  9 28  1  0
 13 29  1  0
 13 30  1  0
 14 31  1  0
 14 32  1  0
 16 33  1  0
 16 34  1  0
 17 35  1  0
 17 36  1  0
 18 37  1  0
 19 38  1  0
M  END
