LIG
     RDKit          3D

 44 46  0  0  0  0  0  0  0  0999 V2000
   33.9155    8.4696    6.1343 C   0  0  0  0  0  0  0  0  0  0  0  0
   33.6446    9.8973    6.4671 C   0  0  0  0  0  0  0  0  0  0  0  0
   34.5760   10.6664    7.1353 C   0  0  0  0  0  0  0  0  0  0  0  0
   34.4122   11.9816    7.4232 N   0  0  0  0  0  0  0  0  0  0  0  0
   33.2302   12.5619    7.1516 C   0  0  0  0  0  0  0  0  0  0  0  0
   33.1830   13.8772    7.4779 O   0  0  0  0  0  0  0  0  0  0  0  0
   31.9518   14.5742    7.4691 C   0  0  0  0  0  0  0  0  0  0  0  0
   31.4824   14.9769    6.0714 C   0  0  0  0  0  0  0  0  0  0  0  0
   30.9901   16.4048    6.1760 C   0  0  0  0  0  0  0  0  0  0  0  0
   31.6593   16.9532    7.3272 N   0  0  0  0  0  0  0  0  0  0  0  0
   31.1796   18.1879    7.9227 C   0  0  0  0  0  0  0  0  0  0  0  0
   32.1654   15.9322    8.1510 C   0  0  0  0  0  0  0  0  0  0  0  0
   32.6140   16.0990    9.2772 O   0  0  0  0  0  0  0  0  0  0  0  0
   32.2288   11.8579    6.5411 C   0  0  0  0  0  0  0  0  0  0  0  0
   32.5396   10.6035    6.0197 C   0  0  0  0  0  0  0  0  0  0  0  0
   32.0405   10.2880    4.7268 N   0  0  0  0  0  0  0  0  0  0  0  0
   32.0824   11.3935    3.8458 C   0  0  0  0  0  0  0  0  0  0  0  0
   31.4657   12.4372    4.0606 O   0  0  0  0  0  0  0  0  0  0  0  0
   33.0626   11.3108    2.6455 C   0  0  0  0  0  0  0  0  0  0  0  0
   32.9421   12.5002    1.6974 C   0  0  0  0  0  0  0  0  0  0  0  0
   33.7613   13.5691    2.3837 C   0  0  0  0  0  0  0  0  0  0  0  0
   34.7788   12.7786    3.1863 C   0  0  0  0  0  0  0  0  0  0  0  0
   34.4161   11.3853    3.1097 O   0  0  0  0  0  0  0  0  0  0  0  0
   34.4143    7.9662    6.9689 H   0  0  0  0  0  0  0  0  0  0  0  0
   32.9834    7.9335    5.9369 H   0  0  0  0  0  0  0  0  0  0  0  0
   34.5532    8.4006    5.2474 H   0  0  0  0  0  0  0  0  0  0  0  0
   35.5229   10.2497    7.4700 H   0  0  0  0  0  0  0  0  0  0  0  0
   31.2002   14.0239    8.0402 H   0  0  0  0  0  0  0  0  0  0  0  0
   30.6875   14.3375    5.6815 H   0  0  0  0  0  0  0  0  0  0  0  0
   32.3164   14.9213    5.3610 H   0  0  0  0  0  0  0  0  0  0  0  0
   31.2586   16.9937    5.2931 H   0  0  0  0  0  0  0  0  0  0  0  0
   29.9048   16.4591    6.2920 H   0  0  0  0  0  0  0  0  0  0  0  0
   30.0995   18.1538    8.0784 H   0  0  0  0  0  0  0  0  0  0  0  0
   31.4025   19.0037    7.2290 H   0  0  0  0  0  0  0  0  0  0  0  0
   31.6786   18.3818    8.8758 H   0  0  0  0  0  0  0  0  0  0  0  0
   31.3010   12.3291    6.2707 H   0  0  0  0  0  0  0  0  0  0  0  0
   32.4641    9.4582    4.3268 H   0  0  0  0  0  0  0  0  0  0  0  0
   32.8992   10.3603    2.1281 H   0  0  0  0  0  0  0  0  0  0  0  0
   33.4122   12.2495    0.7387 H   0  0  0  0  0  0  0  0  0  0  0  0
   31.9125   12.8123    1.5013 H   0  0  0  0  0  0  0  0  0  0  0  0
   34.2342   14.2572    1.6764 H   0  0  0  0  0  0  0  0  0  0  0  0
   33.1424   14.1759    3.0531 H   0  0  0  0  0  0  0  0  0  0  0  0
   35.7890   12.8871    2.7802 H   0  0  0  0  0  0  0  0  0  0  0  0
   34.7941   13.0855    4.2368 H   0  0  0  0  0  0  0  0  0  0  0  0
  1  2  1  0
  2  3  2  0
  3  4  1  0
  4  5  2  0
  5  6  1  0
  6  7  1  0
  7  8  1  0
  8  9  1  0
  9 10  1  0
 10 11  1  0
 10 12  1  0
 12 13  2  0
  5 14  1  0
 14 15  2  0
 15 16  1  0
 16 17  1  0
 17 18  2  0
 17 19  1  0
 19 20  1  0
 20 21  1  0
 21 22  1  0
 22 23  1  0
 15  2  1  0
 23 19  1  0
 12  7  1  0
  1 24  1  0
  1 25  1  0
  1 26  1  0
  3 27  1  0
  7 28  1  0
  8 29  1  0
  8 30  1  0
  9 31  1  0
  9 32  1  0
 11 33  1  0
 11 34  1  0
 11 35  1  0
 14 36  1  0
 16 37  1  0
 19 38  1  0
 20 39  1  0
 20 40  1  0
 21 41  1  0
 21 42  1  0
 22 43  1  0
 22 44  1  0
M  END
