LIG
     RDKit          3D

 52 54  0  0  0  0  0  0  0  0999 V2000
   30.8480    8.3410    9.6370 C   0  0  0  0  0  0  0  0  0  0  0  0
   31.5630    9.4800    8.9430 C   0  0  0  0  0  0  0  0  0  0  0  0
   32.6580    9.2460    8.1260 C   0  0  0  0  0  0  0  0  0  0  0  0
   33.3470   10.2740    7.4930 C   0  0  0  0  0  0  0  0  0  0  0  0
   34.5920    9.9920    6.6940 C   0  0  0  0  0  0  0  0  0  0  0  0
   32.8900   11.5720    7.6690 C   0  0  0  0  0  0  0  0  0  0  0  0
   33.3940   12.4720    6.7660 O   0  0  0  0  0  0  0  0  0  0  0  0
   32.5070   13.2300    6.0470 C   0  0  0  0  0  0  0  0  0  0  0  0
   32.8430   14.5690    6.5820 C   0  0  0  0  0  0  0  0  0  0  0  0
   32.2450   15.0040    7.5510 O   0  0  0  0  0  0  0  0  0  0  0  0
   33.9260   15.1770    6.0590 N   0  0  0  0  0  0  0  0  0  0  0  0
   34.5050   15.1130    4.7140 C   0  0  0  0  0  0  0  0  0  0  0  0
   35.9790   14.7950    4.8070 C   0  0  0  0  0  0  0  0  0  0  0  0
   36.6530   15.7410    5.6230 O   0  0  0  0  0  0  0  0  0  0  0  0
   36.2000   15.5640    6.9400 C   0  0  0  0  0  0  0  0  0  0  0  0
   34.7260   15.9040    7.0650 C   0  0  0  0  0  0  0  0  0  0  0  0
   31.8380   11.8440    8.5230 C   0  0  0  0  0  0  0  0  0  0  0  0
   30.9510   13.3300    7.5050 O   0  0  0  0  0  0  0  0  0  0  0  0
   30.0580   13.6540    8.5870 C   0  0  0  0  0  0  0  0  0  0  0  0
   28.5940   13.4330    8.1660 C   0  0  0  0  0  0  0  0  0  0  0  0
   27.8900   14.7750    8.3110 C   0  0  0  0  0  0  0  0  0  0  0  0
   28.8690   15.5850    9.0100 N   0  0  0  0  0  0  0  0  0  0  0  0
   28.4820   16.7650    9.7690 C   0  0  0  0  0  0  0  0  0  0  0  0
   30.1260   15.1410    8.9140 C   0  0  0  0  0  0  0  0  0  0  0  0
   31.1310   15.8110    9.0820 O   0  0  0  0  0  0  0  0  0  0  0  0
   31.1650   10.7950    9.1290 C   0  0  0  0  0  0  0  0  0  0  0  0
   31.2839    8.1845   10.6268 H   0  0  0  0  0  0  0  0  0  0  0  0
   29.7820    8.5605    9.7419 H   0  0  0  0  0  0  0  0  0  0  0  0
   30.9379    7.4202    9.0544 H   0  0  0  0  0  0  0  0  0  0  0  0
   32.9984    8.2071    7.9760 H   0  0  0  0  0  0  0  0  0  0  0  0
   34.4341   10.2624    5.6437 H   0  0  0  0  0  0  0  0  0  0  0  0
   35.4376   10.5611    7.0968 H   0  0  0  0  0  0  0  0  0  0  0  0
   34.9845   10.9043    6.2324 H   0  0  0  0  0  0  0  0  0  0  0  0
   32.6995   13.2316    4.9982 H   0  0  0  0  0  0  0  0  0  0  0  0
   31.5114   12.9798    6.3298 H   0  0  0  0  0  0  0  0  0  0  0  0
   34.3493   16.0981    4.2677 H   0  0  0  0  0  0  0  0  0  0  0  0
   33.9831   14.3667    4.1166 H   0  0  0  0  0  0  0  0  0  0  0  0
   36.1375   13.8062    5.2374 H   0  0  0  0  0  0  0  0  0  0  0  0
   36.4401   14.8172    3.8205 H   0  0  0  0  0  0  0  0  0  0  0  0
   36.7895   16.2092    7.5915 H   0  0  0  0  0  0  0  0  0  0  0  0
   36.3760   14.5291    7.2306 H   0  0  0  0  0  0  0  0  0  0  0  0
   34.3392   15.5916    8.0417 H   0  0  0  0  0  0  0  0  0  0  0  0
   34.5665   16.9805    6.9650 H   0  0  0  0  0  0  0  0  0  0  0  0
   30.2949   13.0904    9.4693 H   0  0  0  0  0  0  0  0  0  0  0  0
   28.1063   12.6380    8.7605 H   0  0  0  0  0  0  0  0  0  0  0  0
   28.5527   13.0926    7.1120 H   0  0  0  0  0  0  0  0  0  0  0  0
   26.9953   14.6992    8.9341 H   0  0  0  0  0  0  0  0  0  0  0  0
   27.6436   15.2232    7.3475 H   0  0  0  0  0  0  0  0  0  0  0  0
   27.9014   17.4458    9.1425 H   0  0  0  0  0  0  0  0  0  0  0  0
   28.8921   17.6494    9.2775 H   0  0  0  0  0  0  0  0  0  0  0  0
   27.3895   16.8200    9.7890 H   0  0  0  0  0  0  0  0  0  0  0  0
   30.2981   10.9870    9.7682 H   0  0  0  0  0  0  0  0  0  0  0  0
  1  2  1  0
  2  3  4  0
  3  4  4  0
  4  5  1  0
  4  6  4  0
  6  7  1  0
  7  8  1  0
  8  9  1  0
  9 10  2  0
  9 11  1  0
 11 12  1  0
 12 13  1  0
 13 14  1  0
 14 15  1  0
 15 16  1  0
  6 17  4  0
 17 18  1  0
 18 19  1  0
 19 20  1  0
 20 21  1  0
 21 22  1  0
 22 23  1  0
 22 24  1  0
 24 25  2  0
 17 26  4  0
 26  2  4  0
 16 11  1  0
 24 19  1  0
  1 27  1  0
  1 28  1  0
  1 29  1  0
  3 30  1  0
  5 31  1  0
  5 32  1  0
  5 33  1  0
  8 34  1  0
  8 35  1  0
 12 36  1  0
 12 37  1  0
 13 38  1  0
 13 39  1  0
 15 40  1  0
 15 41  1  0
 16 42  1  0
 16 43  1  0
 19 44  1  0
 20 45  1  0
 20 46  1  0
 21 47  1  0
 21 48  1  0
 23 49  1  0
 23 50  1  0
 23 51  1  0
 26 52  1  0
M  END
$$$$
LIG
     RDKit          3D

 52 54  0  0  0  0  0  0  0  0999 V2000
   30.8480    8.3410    9.6370 C   0  0  0  0  0  0  0  0  0  0  0  0
   31.5630    9.4800    8.9430 C   0  0  0  0  0  0  0  0  0  0  0  0
   32.6580    9.2460    8.1260 C   0  0  0  0  0  0  0  0  0  0  0  0
   33.3470   10.2740    7.4930 C   0  0  0  0  0  0  0  0  0  0  0  0
   34.5920    9.9920    6.6940 C   0  0  0  0  0  0  0  0  0  0  0  0
   32.8900   11.5720    7.6690 C   0  0  0  0  0  0  0  0  0  0  0  0
   33.3940   12.4720    6.7660 O   0  0  0  0  0  0  0  0  0  0  0  0
   32.5070   13.2300    6.0470 C   0  0  0  0  0  0  0  0  0  0  0  0
   32.8430   14.5690    6.5820 C   0  0  0  0  0  0  0  0  0  0  0  0
   32.2450   15.0040    7.5510 O   0  0  0  0  0  0  0  0  0  0  0  0
   33.9260   15.1770    6.0590 N   0  0  0  0  0  0  0  0  0  0  0  0
   34.7260   15.9040    7.0650 C   0  0  0  0  0  0  0  0  0  0  0  0
   36.2000   15.5640    6.9400 C   0  0  0  0  0  0  0  0  0  0  0  0
   36.6530   15.7410    5.6230 O   0  0  0  0  0  0  0  0  0  0  0  0
   35.9790   14.7950    4.8070 C   0  0  0  0  0  0  0  0  0  0  0  0
   34.5050   15.1130    4.7140 C   0  0  0  0  0  0  0  0  0  0  0  0
   31.8380   11.8440    8.5230 C   0  0  0  0  0  0  0  0  0  0  0  0
   30.9510   13.3300    7.5050 O   0  0  0  0  0  0  0  0  0  0  0  0
   30.0580   13.6540    8.5870 C   0  0  0  0  0  0  0  0  0  0  0  0
   28.5940   13.4330    8.1660 C   0  0  0  0  0  0  0  0  0  0  0  0
   27.8900   14.7750    8.3110 C   0  0  0  0  0  0  0  0  0  0  0  0
   28.8690   15.5850    9.0100 N   0  0  0  0  0  0  0  0  0  0  0  0
   28.4820   16.7650    9.7690 C   0  0  0  0  0  0  0  0  0  0  0  0
   30.1260   15.1410    8.9140 C   0  0  0  0  0  0  0  0  0  0  0  0
   31.1310   15.8110    9.0820 O   0  0  0  0  0  0  0  0  0  0  0  0
   31.1650   10.7950    9.1290 C   0  0  0  0  0  0  0  0  0  0  0  0
   31.0876    7.3911    9.1519 H   0  0  0  0  0  0  0  0  0  0  0  0
   31.5640    7.6226   10.0434 H   0  0  0  0  0  0  0  0  0  0  0  0
   30.1963    7.8295    8.9260 H   0  0  0  0  0  0  0  0  0  0  0  0
   32.9940    8.2070    7.9701 H   0  0  0  0  0  0  0  0  0  0  0  0
   35.0779   10.9185    6.3734 H   0  0  0  0  0  0  0  0  0  0  0  0
   34.4999   10.4081    5.6863 H   0  0  0  0  0  0  0  0  0  0  0  0
   34.3410    9.4163    5.7990 H   0  0  0  0  0  0  0  0  0  0  0  0
   31.4839   13.0207    6.2654 H   0  0  0  0  0  0  0  0  0  0  0  0
   32.7626   13.1928    5.0123 H   0  0  0  0  0  0  0  0  0  0  0  0
   34.3736   15.6841    8.0739 H   0  0  0  0  0  0  0  0  0  0  0  0
   34.5599   16.9681    6.8674 H   0  0  0  0  0  0  0  0  0  0  0  0
   36.3894   14.5266    7.2582 H   0  0  0  0  0  0  0  0  0  0  0  0
   36.7904   16.2144    7.6006 H   0  0  0  0  0  0  0  0  0  0  0  0
   36.1438   13.7871    5.2163 H   0  0  0  0  0  0  0  0  0  0  0  0
   36.4363   14.8212    3.8088 H   0  0  0  0  0  0  0  0  0  0  0  0
   33.9923   14.3671    4.1093 H   0  0  0  0  0  0  0  0  0  0  0  0
   34.3539   16.0957    4.2667 H   0  0  0  0  0  0  0  0  0  0  0  0
   30.2671   13.0597    9.5120 H   0  0  0  0  0  0  0  0  0  0  0  0
   28.4888   13.0283    7.1418 H   0  0  0  0  0  0  0  0  0  0  0  0
   28.1269   12.7006    8.8535 H   0  0  0  0  0  0  0  0  0  0  0  0
   26.9696   14.7020    8.8934 H   0  0  0  0  0  0  0  0  0  0  0  0
   27.6903   15.2327    7.3374 H   0  0  0  0  0  0  0  0  0  0  0  0
   29.3315   17.4493    9.8163 H   0  0  0  0  0  0  0  0  0  0  0  0
   27.6322   17.2542    9.2896 H   0  0  0  0  0  0  0  0  0  0  0  0
   28.5863   17.6414    9.1254 H   0  0  0  0  0  0  0  0  0  0  0  0
   30.2855   11.0174    9.7535 H   0  0  0  0  0  0  0  0  0  0  0  0
  1  2  1  0
  2  3  4  0
  3  4  4  0
  4  5  1  0
  4  6  4  0
  6  7  1  0
  7  8  1  0
  8  9  1  0
  9 10  2  0
  9 11  1  0
 11 12  1  0
 12 13  1  0
 13 14  1  0
 14 15  1  0
 15 16  1  0
  6 17  4  0
 17 18  1  0
 18 19  1  0
 19 20  1  0
 20 21  1  0
 21 22  1  0
 22 23  1  0
 22 24  1  0
 24 25  2  0
 17 26  4  0
 26  2  4  0
 16 11  1  0
 24 19  1  0
  1 27  1  0
  1 28  1  0
  1 29  1  0
  3 30  1  0
  5 31  1  0
  5 32  1  0
  5 33  1  0
  8 34  1  0
  8 35  1  0
 12 36  1  0
 12 37  1  0
 13 38  1  0
 13 39  1  0
 15 40  1  0
 15 41  1  0
 16 42  1  0
 16 43  1  0
 19 44  1  0
 20 45  1  0
 20 46  1  0
 21 47  1  0
 21 48  1  0
 23 49  1  0
 23 50  1  0
 23 51  1  0
 26 52  1  0
M  END
$$$$
LIG
     RDKit          3D

 52 54  0  0  0  0  0  0  0  0999 V2000
   30.8480    8.3410    9.6370 C   0  0  0  0  0  0  0  0  0  0  0  0
   31.5630    9.4800    8.9430 C   0  0  0  0  0  0  0  0  0  0  0  0
   32.6580    9.2460    8.1260 C   0  0  0  0  0  0  0  0  0  0  0  0
   33.3470   10.2740    7.4930 C   0  0  0  0  0  0  0  0  0  0  0  0
   34.5920    9.9920    6.6940 C   0  0  0  0  0  0  0  0  0  0  0  0
   32.8900   11.5720    7.6690 C   0  0  0  0  0  0  0  0  0  0  0  0
   33.3940   12.4720    6.7660 O   0  0  0  0  0  0  0  0  0  0  0  0
   32.5070   13.2300    6.0470 C   0  0  0  0  0  0  0  0  0  0  0  0
   32.8430   14.5690    6.5820 C   0  0  0  0  0  0  0  0  0  0  0  0
   32.2450   15.0040    7.5510 O   0  0  0  0  0  0  0  0  0  0  0  0
   33.9260   15.1770    6.0590 N   0  0  0  0  0  0  0  0  0  0  0  0
   34.5050   15.1130    4.7140 C   0  0  0  0  0  0  0  0  0  0  0  0
   35.9790   14.7950    4.8070 C   0  0  0  0  0  0  0  0  0  0  0  0
   36.6530   15.7410    5.6230 O   0  0  0  0  0  0  0  0  0  0  0  0
   36.2000   15.5640    6.9400 C   0  0  0  0  0  0  0  0  0  0  0  0
   34.7260   15.9040    7.0650 C   0  0  0  0  0  0  0  0  0  0  0  0
   31.8380   11.8440    8.5230 C   0  0  0  0  0  0  0  0  0  0  0  0
   30.9510   13.3300    7.5050 O   0  0  0  0  0  0  0  0  0  0  0  0
   30.0580   13.6540    8.5870 C   0  0  0  0  0  0  0  0  0  0  0  0
   28.5940   13.4330    8.1660 C   0  0  0  0  0  0  0  0  0  0  0  0
   27.8900   14.7750    8.3110 C   0  0  0  0  0  0  0  0  0  0  0  0
   28.8690   15.5850    9.0100 N   0  0  0  0  0  0  0  0  0  0  0  0
   28.4820   16.7650    9.7690 C   0  0  0  0  0  0  0  0  0  0  0  0
   30.1260   15.1410    8.9140 C   0  0  0  0  0  0  0  0  0  0  0  0
   31.1310   15.8110    9.0820 O   0  0  0  0  0  0  0  0  0  0  0  0
   31.1650   10.7950    9.1290 C   0  0  0  0  0  0  0  0  0  0  0  0
   31.2063    8.2541   10.6650 H   0  0  0  0  0  0  0  0  0  0  0  0
   29.7688    8.5131    9.6456 H   0  0  0  0  0  0  0  0  0  0  0  0
   31.0274    7.3991    9.1127 H   0  0  0  0  0  0  0  0  0  0  0  0
   32.9918    8.2066    7.9705 H   0  0  0  0  0  0  0  0  0  0  0  0
   34.4070    9.1951    5.9673 H   0  0  0  0  0  0  0  0  0  0  0  0
   34.9150   10.8756    6.1350 H   0  0  0  0  0  0  0  0  0  0  0  0
   35.4056    9.6940    7.3617 H   0  0  0  0  0  0  0  0  0  0  0  0
   32.6866   13.2350    4.9891 H   0  0  0  0  0  0  0  0  0  0  0  0
   31.4923   12.9846    6.2791 H   0  0  0  0  0  0  0  0  0  0  0  0
   33.9712   14.3186    4.1883 H   0  0  0  0  0  0  0  0  0  0  0  0
   34.3506   16.0533    4.1916 H   0  0  0  0  0  0  0  0  0  0  0  0
   36.4441   14.8049    3.8202 H   0  0  0  0  0  0  0  0  0  0  0  0
   36.1320   13.8089    5.2436 H   0  0  0  0  0  0  0  0  0  0  0  0
   36.7922   16.1957    7.5966 H   0  0  0  0  0  0  0  0  0  0  0  0
   36.3673   14.5247    7.2173 H   0  0  0  0  0  0  0  0  0  0  0  0
   34.5551   16.9719    6.8760 H   0  0  0  0  0  0  0  0  0  0  0  0
   34.3591   15.6773    8.0726 H   0  0  0  0  0  0  0  0  0  0  0  0
   29.6876   14.6774    7.0292 H   0  0  0  0  0  0  0  0  0  0  0  0
   28.5624   13.1173    7.1044 H   0  0  0  0  0  0  0  0  0  0  0  0
   28.0838   12.6474    8.7533 H   0  0  0  0  0  0  0  0  0  0  0  0
   27.6447   15.2232    7.3471 H   0  0  0  0  0  0  0  0  0  0  0  0
   26.9942   14.6958    8.9326 H   0  0  0  0  0  0  0  0  0  0  0  0
   29.3637   17.2221   10.2216 H   0  0  0  0  0  0  0  0  0  0  0  0
   28.9884   17.6334    9.3429 H   0  0  0  0  0  0  0  0  0  0  0  0
   28.7777   16.6273   10.8102 H   0  0  0  0  0  0  0  0  0  0  0  0
   30.3057   11.0176    9.7788 H   0  0  0  0  0  0  0  0  0  0  0  0
  1  2  1  0
  2  3  4  0
  3  4  4  0
  4  5  1  0
  4  6  4  0
  6  7  1  0
  7  8  1  0
  8  9  1  0
  9 10  2  0
  9 11  1  0
 11 12  1  0
 12 13  1  0
 13 14  1  0
 14 15  1  0
 15 16  1  0
  6 17  4  0
 17 18  1  0
 18 19  1  0
 19 20  1  0
 20 21  1  0
 21 22  1  0
 22 23  1  0
 22 24  1  0
 24 25  2  0
 17 26  4  0
 26  2  4  0
 16 11  1  0
 24 19  1  0
  1 27  1  0
  1 28  1  0
  1 29  1  0
  3 30  1  0
  5 31  1  0
  5 32  1  0
  5 33  1  0
  8 34  1  0
  8 35  1  0
 12 36  1  0
 12 37  1  0
 13 38  1  0
 13 39  1  0
 15 40  1  0
 15 41  1  0
 16 42  1  0
 16 43  1  0
 19 44  1  0
 20 45  1  0
 20 46  1  0
 21 47  1  0
 21 48  1  0
 23 49  1  0
 23 50  1  0
 23 51  1  0
 26 52  1  0
M  END
$$$$
