LIG
     RDKit          3D

 38 39  0  0  0  0  0  0  0  0999 V2000
   30.8147    8.7273    8.5085 C   0  0  0  0  0  0  0  0  0  0  0  0
   31.5371    9.6175    7.5405 C   0  0  0  0  0  0  0  0  0  0  0  0
   32.5045    9.0512    6.7011 C   0  0  0  0  0  0  0  0  0  0  0  0
   33.2384    9.8049    5.7813 C   0  0  0  0  0  0  0  0  0  0  0  0
   33.0066   11.1670    5.6769 C   0  0  0  0  0  0  0  0  0  0  0  0
   33.7430   11.9097    4.7427 N   0  0  0  0  0  0  0  0  0  0  0  0
   33.7129   13.2817    4.5577 C   0  0  0  0  0  0  0  0  0  0  0  0
   33.1137   14.1039    5.2466 O   0  0  0  0  0  0  0  0  0  0  0  0
   34.5241   13.7196    3.3338 C   0  0  0  0  0  0  0  0  0  0  0  0
   33.6846   14.6154    2.4345 C   0  0  0  0  0  0  0  0  0  0  0  0
   34.2670   14.3418    1.0738 C   0  0  0  0  0  0  0  0  0  0  0  0
   34.5925   12.8695    1.1623 C   0  0  0  0  0  0  0  0  0  0  0  0
   34.9521   12.6047    2.5254 O   0  0  0  0  0  0  0  0  0  0  0  0
   32.0176   11.7308    6.4748 C   0  0  0  0  0  0  0  0  0  0  0  0
   31.2607   10.9688    7.3754 C   0  0  0  0  0  0  0  0  0  0  0  0
   30.2626   11.6087    8.1260 N   0  0  0  0  0  0  0  0  0  0  0  0
   29.5365   12.6761    7.6292 C   0  0  0  0  0  0  0  0  0  0  0  0
   29.4114   12.9429    6.4369 O   0  0  0  0  0  0  0  0  0  0  0  0
   28.8861   13.4737    8.7153 C   0  0  0  0  0  0  0  0  0  0  0  0
   28.6318   14.8336    8.2798 C   0  0  0  0  0  0  0  0  0  0  0  0
   28.4337   15.9456    8.0316 N   0  0  0  0  0  0  0  0  0  0  0  0
   29.9287    8.2862    8.0503 H   0  0  0  0  0  0  0  0  0  0  0  0
   30.5029    9.2638    9.4068 H   0  0  0  0  0  0  0  0  0  0  0  0
   31.4828    7.9408    8.8582 H   0  0  0  0  0  0  0  0  0  0  0  0
   32.7188    7.9961    6.7982 H   0  0  0  0  0  0  0  0  0  0  0  0
   33.9962    9.3099    5.1799 H   0  0  0  0  0  0  0  0  0  0  0  0
   34.3971   11.4164    4.1397 H   0  0  0  0  0  0  0  0  0  0  0  0
   35.4254   14.2343    3.6851 H   0  0  0  0  0  0  0  0  0  0  0  0
   33.7397   15.6696    2.7223 H   0  0  0  0  0  0  0  0  0  0  0  0
   32.6280   14.3200    2.4546 H   0  0  0  0  0  0  0  0  0  0  0  0
   35.1889   14.9209    0.9439 H   0  0  0  0  0  0  0  0  0  0  0  0
   33.5916   14.5827    0.2489 H   0  0  0  0  0  0  0  0  0  0  0  0
   35.4136   12.5784    0.5014 H   0  0  0  0  0  0  0  0  0  0  0  0
   33.7174   12.2553    0.9235 H   0  0  0  0  0  0  0  0  0  0  0  0
   31.8131   12.7916    6.4014 H   0  0  0  0  0  0  0  0  0  0  0  0
   29.8951   11.1483    8.9539 H   0  0  0  0  0  0  0  0  0  0  0  0
   27.9620   12.9788    9.0117 H   0  0  0  0  0  0  0  0  0  0  0  0
   29.5559   13.5237    9.5779 H   0  0  0  0  0  0  0  0  0  0  0  0
  1  2  1  0
  2  3  2  0
  3  4  1  0
  4  5  2  0
  5  6  1  0
  6  7  1  0
  7  8  2  0
  7  9  1  0
  9 10  1  0
 10 11  1  0
 11 12  1  0
 12 13  1  0
  5 14  1  0
 14 15  2  0
 15 16  1  0
 16 17  1  0
 17 18  2  0
 17 19  1  0
 19 20  1  0
 20 21  3  0
 15  2  1  0
 13  9  1  0
  1 22  1  0
  1 23  1  0
  1 24  1  0
  3 25  1  0
  4 26  1  0
  6 27  1  0
  9 28  1  0
 10 29  1  0
 10 30  1  0
 11 31  1  0
 11 32  1  0
 12 33  1  0
 12 34  1  0
 14 35  1  0
 16 36  1  0
 19 37  1  0
 19 38  1  0
M  END
