LIG
     RDKit          3D

 44 45  0  0  0  0  0  0  0  0999 V2000
   33.0612   16.7574    9.7146 C   0  0  0  0  0  0  0  0  0  0  0  0
   32.3046   16.1027    8.6732 N   0  0  0  0  0  0  0  0  0  0  0  0
   31.7299   17.0163    7.6979 C   0  0  0  0  0  0  0  0  0  0  0  0
   32.1575   14.7029    8.6698 C   0  0  0  0  0  0  0  0  0  0  0  0
   32.5886   14.0170    9.5950 O   0  0  0  0  0  0  0  0  0  0  0  0
   31.5447   14.0408    7.4215 C   0  0  0  0  0  0  0  0  0  0  0  0
   31.2591   12.6401    7.5016 O   0  0  0  0  0  0  0  0  0  0  0  0
   31.7007   11.7295    6.5962 C   0  0  0  0  0  0  0  0  0  0  0  0
   31.4685   10.3769    6.7982 C   0  0  0  0  0  0  0  0  0  0  0  0
   32.4229    9.4945    6.3408 C   0  0  0  0  0  0  0  0  0  0  0  0
   33.5415    9.9154    5.7271 N   0  0  0  0  0  0  0  0  0  0  0  0
   33.5942   11.2262    5.4232 C   0  0  0  0  0  0  0  0  0  0  0  0
   34.8103   11.6785    5.0130 O   0  0  0  0  0  0  0  0  0  0  0  0
   34.9140   13.0743    4.8046 C   0  0  0  0  0  0  0  0  0  0  0  0
   34.7396   14.0953    5.9630 C   0  0  0  0  0  0  0  0  0  0  0  0
   34.4642   13.7542    7.1097 O   0  0  0  0  0  0  0  0  0  0  0  0
   34.9041   15.4416    5.6424 N   0  0  0  0  0  0  0  0  0  0  0  0
   35.2589   16.3148    6.7634 C   0  0  0  0  0  0  0  0  0  0  0  0
   36.7863   16.3570    6.8910 C   0  0  0  0  0  0  0  0  0  0  0  0
   37.3832   16.8002    5.6546 O   0  0  0  0  0  0  0  0  0  0  0  0
   37.0253   15.9470    4.5544 C   0  0  0  0  0  0  0  0  0  0  0  0
   35.5026   15.8913    4.3886 C   0  0  0  0  0  0  0  0  0  0  0  0
   32.5565   12.0890    5.6199 C   0  0  0  0  0  0  0  0  0  0  0  0
   33.8190   16.0914   10.1291 H   0  0  0  0  0  0  0  0  0  0  0  0
   33.6123   17.5998    9.2804 H   0  0  0  0  0  0  0  0  0  0  0  0
   32.3936   17.1637   10.4704 H   0  0  0  0  0  0  0  0  0  0  0  0
   32.5519   17.5849    7.2493 H   0  0  0  0  0  0  0  0  0  0  0  0
   31.2224   16.5272    6.8656 H   0  0  0  0  0  0  0  0  0  0  0  0
   31.0777   17.7417    8.1959 H   0  0  0  0  0  0  0  0  0  0  0  0
   32.2257   14.3058    6.6189 H   0  0  0  0  0  0  0  0  0  0  0  0
   30.6321   14.5334    7.1069 H   0  0  0  0  0  0  0  0  0  0  0  0
   30.6352   10.0236    7.3818 H   0  0  0  0  0  0  0  0  0  0  0  0
   32.3487    8.4290    6.5240 H   0  0  0  0  0  0  0  0  0  0  0  0
   34.2724   13.3601    3.9607 H   0  0  0  0  0  0  0  0  0  0  0  0
   35.9427   13.2082    4.4514 H   0  0  0  0  0  0  0  0  0  0  0  0
   34.8246   15.9685    7.7007 H   0  0  0  0  0  0  0  0  0  0  0  0
   34.8683   17.3131    6.5382 H   0  0  0  0  0  0  0  0  0  0  0  0
   37.0794   17.0642    7.6728 H   0  0  0  0  0  0  0  0  0  0  0  0
   37.1984   15.3744    7.1483 H   0  0  0  0  0  0  0  0  0  0  0  0
   37.4846   16.3606    3.6514 H   0  0  0  0  0  0  0  0  0  0  0  0
   37.4568   14.9552    4.7274 H   0  0  0  0  0  0  0  0  0  0  0  0
   35.2230   15.2533    3.5484 H   0  0  0  0  0  0  0  0  0  0  0  0
   35.1103   16.8956    4.1892 H   0  0  0  0  0  0  0  0  0  0  0  0
   32.5581   13.0874    5.2306 H   0  0  0  0  0  0  0  0  0  0  0  0
  1  2  1  0
  2  3  1  0
  2  4  1  0
  4  5  2  0
  4  6  1  0
  6  7  1  0
  7  8  1  0
  8  9  2  0
  9 10  1  0
 10 11  2  0
 11 12  1  0
 12 13  1  0
 13 14  1  0
 14 15  1  0
 15 16  2  0
 15 17  1  0
 17 18  1  0
 18 19  1  0
 19 20  1  0
 20 21  1  0
 21 22  1  0
 12 23  2  0
 23  8  1  0
 22 17  1  0
  1 24  1  0
  1 25  1  0
  1 26  1  0
  3 27  1  0
  3 28  1  0
  3 29  1  0
  6 30  1  0
  6 31  1  0
  9 32  1  0
 10 33  1  0
 14 34  1  0
 14 35  1  0
 18 36  1  0
 18 37  1  0
 19 38  1  0
 19 39  1  0
 21 40  1  0
 21 41  1  0
 22 42  1  0
 22 43  1  0
 23 44  1  0
M  END
