LIG
     RDKit          3D

 41 42  0  0  0  0  0  0  0  0999 V2000
   34.2958    7.2127    0.3142 C   0  0  0  0  0  0  0  0  0  0  0  0
   33.2221    8.2325    0.5371 C   0  0  0  0  0  0  0  0  0  0  0  0
   32.1692    8.2027   -0.1020 O   0  0  0  0  0  0  0  0  0  0  0  0
   33.3333    9.2017    1.4676 N   0  0  0  0  0  0  0  0  0  0  0  0
   34.3799    9.6143    2.2809 C   0  0  0  0  0  0  0  0  0  0  0  0
   35.7143    9.3232    2.0544 C   0  0  0  0  0  0  0  0  0  0  0  0
   36.6892    9.9453    2.8164 C   0  0  0  0  0  0  0  0  0  0  0  0
   36.3322   10.8363    3.8291 C   0  0  0  0  0  0  0  0  0  0  0  0
   37.4259   11.6560    4.4292 C   0  0  0  0  0  0  0  0  0  0  0  0
   34.9814   11.0383    4.1312 C   0  0  0  0  0  0  0  0  0  0  0  0
   34.6619   11.8253    5.1900 O   0  0  0  0  0  0  0  0  0  0  0  0
   33.3129   12.2931    5.2861 C   0  0  0  0  0  0  0  0  0  0  0  0
   33.3579   13.4308    6.2708 C   0  0  0  0  0  0  0  0  0  0  0  0
   32.6710   13.4071    7.2942 O   0  0  0  0  0  0  0  0  0  0  0  0
   34.2486   14.4662    5.9938 N   0  0  0  0  0  0  0  0  0  0  0  0
   35.0663   14.8233    7.1393 C   0  0  0  0  0  0  0  0  0  0  0  0
   36.3237   13.9709    7.0414 C   0  0  0  0  0  0  0  0  0  0  0  0
   37.1216   14.2581    5.8725 O   0  0  0  0  0  0  0  0  0  0  0  0
   36.4366   15.0153    4.8658 C   0  0  0  0  0  0  0  0  0  0  0  0
   34.9400   14.6850    4.7087 C   0  0  0  0  0  0  0  0  0  0  0  0
   34.0220   10.4498    3.3321 C   0  0  0  0  0  0  0  0  0  0  0  0
   34.7319    6.8755    1.2570 H   0  0  0  0  0  0  0  0  0  0  0  0
   35.0573    7.6127   -0.3590 H   0  0  0  0  0  0  0  0  0  0  0  0
   33.8515    6.3340   -0.1653 H   0  0  0  0  0  0  0  0  0  0  0  0
   32.4759    9.7348    1.5199 H   0  0  0  0  0  0  0  0  0  0  0  0
   36.0557    8.7104    1.2320 H   0  0  0  0  0  0  0  0  0  0  0  0
   37.7356    9.7819    2.5676 H   0  0  0  0  0  0  0  0  0  0  0  0
   37.1944   11.9254    5.4518 H   0  0  0  0  0  0  0  0  0  0  0  0
   37.5716   12.5607    3.8332 H   0  0  0  0  0  0  0  0  0  0  0  0
   38.3768   11.1124    4.4392 H   0  0  0  0  0  0  0  0  0  0  0  0
   32.9152   12.6783    4.3400 H   0  0  0  0  0  0  0  0  0  0  0  0
   32.6723   11.4994    5.6853 H   0  0  0  0  0  0  0  0  0  0  0  0
   35.2959   15.8765    7.0482 H   0  0  0  0  0  0  0  0  0  0  0  0
   34.5512   14.6438    8.0874 H   0  0  0  0  0  0  0  0  0  0  0  0
   36.9430   14.0458    7.9390 H   0  0  0  0  0  0  0  0  0  0  0  0
   36.0455   12.9288    6.9578 H   0  0  0  0  0  0  0  0  0  0  0  0
   36.9525   14.8594    3.9126 H   0  0  0  0  0  0  0  0  0  0  0  0
   36.5905   16.0658    5.1099 H   0  0  0  0  0  0  0  0  0  0  0  0
   34.8270   13.8374    4.0357 H   0  0  0  0  0  0  0  0  0  0  0  0
   34.4356   15.5141    4.2036 H   0  0  0  0  0  0  0  0  0  0  0  0
   32.9777   10.6470    3.5138 H   0  0  0  0  0  0  0  0  0  0  0  0
  1  2  1  0
  2  3  2  0
  2  4  1  0
  4  5  1  0
  5  6  2  0
  6  7  1  0
  7  8  2  0
  8  9  1  0
  8 10  1  0
 10 11  1  0
 11 12  1  0
 12 13  1  0
 13 14  2  0
 13 15  1  0
 15 16  1  0
 16 17  1  0
 17 18  1  0
 18 19  1  0
 19 20  1  0
 10 21  2  0
 21  5  1  0
 20 15  1  0
  1 22  1  0
  1 23  1  0
  1 24  1  0
  4 25  1  0
  6 26  1  0
  7 27  1  0
  9 28  1  0
  9 29  1  0
  9 30  1  0
 12 31  1  0
 12 32  1  0
 16 33  1  0
 16 34  1  0
 17 35  1  0
 17 36  1  0
 19 37  1  0
 19 38  1  0
 20 39  1  0
 20 40  1  0
 21 41  1  0
M  END
