LIG
     RDKit          3D

 52 54  0  0  0  0  0  0  0  0999 V2000
   30.5034    8.2569    8.9854 C   0  0  0  0  0  0  0  0  0  0  0  0
   31.1286    9.2386    8.0583 C   0  0  0  0  0  0  0  0  0  0  0  0
   32.1611    8.9120    7.1896 C   0  0  0  0  0  0  0  0  0  0  0  0
   32.8504    9.8970    6.4699 C   0  0  0  0  0  0  0  0  0  0  0  0
   33.9967    9.5161    5.5800 C   0  0  0  0  0  0  0  0  0  0  0  0
   32.4522   11.2266    6.6045 C   0  0  0  0  0  0  0  0  0  0  0  0
   33.2480   12.1455    5.9691 O   0  0  0  0  0  0  0  0  0  0  0  0
   33.0915   13.4657    6.4255 C   0  0  0  0  0  0  0  0  0  0  0  0
   34.3229   14.3106    6.4486 C   0  0  0  0  0  0  0  0  0  0  0  0
   34.7176   14.7237    7.5410 O   0  0  0  0  0  0  0  0  0  0  0  0
   34.8915   14.6657    5.2444 N   0  0  0  0  0  0  0  0  0  0  0  0
   36.1831   15.3195    5.3300 C   0  0  0  0  0  0  0  0  0  0  0  0
   37.2835   14.2673    5.2979 C   0  0  0  0  0  0  0  0  0  0  0  0
   37.1920   13.5261    4.0698 O   0  0  0  0  0  0  0  0  0  0  0  0
   35.9096   12.8846    3.9469 C   0  0  0  0  0  0  0  0  0  0  0  0
   34.7585   13.8966    4.0173 C   0  0  0  0  0  0  0  0  0  0  0  0
   31.3128   11.5324    7.3608 C   0  0  0  0  0  0  0  0  0  0  0  0
   30.8702   12.8211    7.3384 O   0  0  0  0  0  0  0  0  0  0  0  0
   29.9111   13.1744    8.2771 C   0  0  0  0  0  0  0  0  0  0  0  0
   28.5950   13.2394    7.5297 C   0  0  0  0  0  0  0  0  0  0  0  0
   27.8175   14.1031    8.4523 C   0  0  0  0  0  0  0  0  0  0  0  0
   28.7432   15.0765    8.9192 N   0  0  0  0  0  0  0  0  0  0  0  0
   28.5438   16.4099    8.4856 C   0  0  0  0  0  0  0  0  0  0  0  0
   30.0361   14.5552    8.8952 C   0  0  0  0  0  0  0  0  0  0  0  0
   31.0452   15.1104    9.2959 O   0  0  0  0  0  0  0  0  0  0  0  0
   30.6677   10.5340    8.0730 C   0  0  0  0  0  0  0  0  0  0  0  0
   31.2857    7.7364    9.5356 H   0  0  0  0  0  0  0  0  0  0  0  0
   29.8962    8.7537    9.7470 H   0  0  0  0  0  0  0  0  0  0  0  0
   29.8571    7.5672    8.4422 H   0  0  0  0  0  0  0  0  0  0  0  0
   32.4804    7.8800    7.1318 H   0  0  0  0  0  0  0  0  0  0  0  0
   34.4330    8.5613    5.8783 H   0  0  0  0  0  0  0  0  0  0  0  0
   33.6497    9.4257    4.5467 H   0  0  0  0  0  0  0  0  0  0  0  0
   34.8001   10.2551    5.6094 H   0  0  0  0  0  0  0  0  0  0  0  0
   32.3389   13.9752    5.8155 H   0  0  0  0  0  0  0  0  0  0  0  0
   32.8328   13.4972    7.4906 H   0  0  0  0  0  0  0  0  0  0  0  0
   36.2928   15.9666    4.4526 H   0  0  0  0  0  0  0  0  0  0  0  0
   36.2413   15.9155    6.2347 H   0  0  0  0  0  0  0  0  0  0  0  0
   38.2696   14.7382    5.3100 H   0  0  0  0  0  0  0  0  0  0  0  0
   37.2214   13.5721    6.1432 H   0  0  0  0  0  0  0  0  0  0  0  0
   35.8901   12.3630    2.9851 H   0  0  0  0  0  0  0  0  0  0  0  0
   35.8270   12.1325    4.7381 H   0  0  0  0  0  0  0  0  0  0  0  0
   33.7887   13.4014    3.9443 H   0  0  0  0  0  0  0  0  0  0  0  0
   34.8333   14.6050    3.1837 H   0  0  0  0  0  0  0  0  0  0  0  0
   29.8748   12.5416    9.1494 H   0  0  0  0  0  0  0  0  0  0  0  0
   28.1401   12.2603    7.3601 H   0  0  0  0  0  0  0  0  0  0  0  0
   28.7205   13.7164    6.5485 H   0  0  0  0  0  0  0  0  0  0  0  0
   26.9507   14.5634    7.9849 H   0  0  0  0  0  0  0  0  0  0  0  0
   27.5513   13.5291    9.3363 H   0  0  0  0  0  0  0  0  0  0  0  0
   29.3230   17.0741    8.8137 H   0  0  0  0  0  0  0  0  0  0  0  0
   27.6078   16.7124    8.9409 H   0  0  0  0  0  0  0  0  0  0  0  0
   28.5264   16.4296    7.3959 H   0  0  0  0  0  0  0  0  0  0  0  0
   29.7861   10.7138    8.6667 H   0  0  0  0  0  0  0  0  0  0  0  0
  1  2  1  0
  2  3  2  0
  3  4  1  0
  4  5  1  0
  4  6  2  0
  6  7  1  0
  7  8  1  0
  8  9  1  0
  9 10  2  0
  9 11  1  0
 11 12  1  0
 12 13  1  0
 13 14  1  0
 14 15  1  0
 15 16  1  0
  6 17  1  0
 17 18  1  0
 18 19  1  0
 19 20  1  0
 20 21  1  0
 21 22  1  0
 22 23  1  0
 22 24  1  0
 24 25  2  0
 17 26  2  0
 26  2  1  0
 16 11  1  0
 24 19  1  0
  1 27  1  0
  1 28  1  0
  1 29  1  0
  3 30  1  0
  5 31  1  0
  5 32  1  0
  5 33  1  0
  8 34  1  0
  8 35  1  0
 12 36  1  0
 12 37  1  0
 13 38  1  0
 13 39  1  0
 15 40  1  0
 15 41  1  0
 16 42  1  0
 16 43  1  0
 19 44  1  0
 20 45  1  0
 20 46  1  0
 21 47  1  0
 21 48  1  0
 23 49  1  0
 23 50  1  0
 23 51  1  0
 26 52  1  0
M  END
