LIG
     RDKit          3D

 40 41  0  0  0  0  0  0  0  0999 V2000
   31.0996    8.9730    6.0928 C   0  0  0  0  0  0  0  0  0  0  0  0
   32.2677    9.8840    6.1927 C   0  0  0  0  0  0  0  0  0  0  0  0
   32.1002   11.2562    6.2698 C   0  0  0  0  0  0  0  0  0  0  0  0
   33.2185   12.0554    6.4996 C   0  0  0  0  0  0  0  0  0  0  0  0
   33.1720   13.4298    6.4918 O   0  0  0  0  0  0  0  0  0  0  0  0
   32.8056   14.0552    7.7170 C   0  0  0  0  0  0  0  0  0  0  0  0
   31.3344   13.9883    7.7259 C   0  0  0  0  0  0  0  0  0  0  0  0
   31.0252   14.9760    6.5915 C   0  0  0  0  0  0  0  0  0  0  0  0
   31.8799   16.0954    6.9062 N   0  0  0  0  0  0  0  0  0  0  0  0
   31.3434   17.4208    7.1946 C   0  0  0  0  0  0  0  0  0  0  0  0
   32.8820   15.5858    7.7428 C   0  0  0  0  0  0  0  0  0  0  0  0
   33.6347   16.2492    8.4371 O   0  0  0  0  0  0  0  0  0  0  0  0
   34.4790   11.4778    6.4725 C   0  0  0  0  0  0  0  0  0  0  0  0
   35.5920   12.3346    6.5524 N   0  0  0  0  0  0  0  0  0  0  0  0
   35.7382   13.1471    7.6645 C   0  0  0  0  0  0  0  0  0  0  0  0
   35.3142   12.8526    8.7777 O   0  0  0  0  0  0  0  0  0  0  0  0
   36.5045   14.4364    7.4000 C   0  0  0  0  0  0  0  0  0  0  0  0
   35.8447   15.3370    6.5283 O   0  0  0  0  0  0  0  0  0  0  0  0
   34.5649   10.1112    6.2318 C   0  0  0  0  0  0  0  0  0  0  0  0
   35.8749    9.4288    6.0511 C   0  0  0  0  0  0  0  0  0  0  0  0
   33.4776    9.3086    6.1430 N   0  0  0  0  0  0  0  0  0  0  0  0
   30.6544    9.0907    5.1027 H   0  0  0  0  0  0  0  0  0  0  0  0
   31.4081    7.9317    6.1825 H   0  0  0  0  0  0  0  0  0  0  0  0
   30.3889    9.2186    6.8796 H   0  0  0  0  0  0  0  0  0  0  0  0
   31.1162   11.6726    6.1152 H   0  0  0  0  0  0  0  0  0  0  0  0
   33.2299   13.6200    8.6197 H   0  0  0  0  0  0  0  0  0  0  0  0
   31.0880   12.9590    7.5939 H   0  0  0  0  0  0  0  0  0  0  0  0
   31.0091   14.2349    8.7286 H   0  0  0  0  0  0  0  0  0  0  0  0
   31.3445   14.5877    5.6156 H   0  0  0  0  0  0  0  0  0  0  0  0
   30.0116   15.2999    6.4238 H   0  0  0  0  0  0  0  0  0  0  0  0
   32.0836   18.1476    6.8431 H   0  0  0  0  0  0  0  0  0  0  0  0
   30.4119   17.5854    6.6473 H   0  0  0  0  0  0  0  0  0  0  0  0
   31.2281   17.5887    8.2686 H   0  0  0  0  0  0  0  0  0  0  0  0
   36.4623   12.0492    6.1268 H   0  0  0  0  0  0  0  0  0  0  0  0
   36.7037   14.9398    8.3521 H   0  0  0  0  0  0  0  0  0  0  0  0
   37.4719   14.1777    6.9572 H   0  0  0  0  0  0  0  0  0  0  0  0
   35.2168   15.8378    7.0880 H   0  0  0  0  0  0  0  0  0  0  0  0
   36.5098    9.5767    6.9306 H   0  0  0  0  0  0  0  0  0  0  0  0
   35.7434    8.3499    5.9154 H   0  0  0  0  0  0  0  0  0  0  0  0
   36.3896    9.8156    5.1660 H   0  0  0  0  0  0  0  0  0  0  0  0
  1  2  1  0
  2  3  2  0
  3  4  1  0
  4  5  1  0
  5  6  1  0
  6  7  1  0
  7  8  1  0
  8  9  1  0
  9 10  1  0
  9 11  1  0
 11 12  2  0
  4 13  2  0
 13 14  1  0
 14 15  1  0
 15 16  2  0
 15 17  1  0
 17 18  1  0
 13 19  1  0
 19 20  1  0
 19 21  2  0
 21  2  1  0
 11  6  1  0
  1 22  1  0
  1 23  1  0
  1 24  1  0
  3 25  1  0
  6 26  1  0
  7 27  1  0
  7 28  1  0
  8 29  1  0
  8 30  1  0
 10 31  1  0
 10 32  1  0
 10 33  1  0
 14 34  1  0
 17 35  1  0
 17 36  1  0
 18 37  1  0
 20 38  1  0
 20 39  1  0
 20 40  1  0
M  END
