LIG
     RDKit          3D

 34 34  0  0  0  0  0  0  0  0999 V2000
   34.2095   12.5201    2.9251 C   0  0  0  0  0  0  0  0  0  0  0  0
   35.4030   12.2250    3.6980 N   0  0  0  0  0  0  0  0  0  0  0  0
   35.9607   10.8916    3.5344 C   0  0  0  0  0  0  0  0  0  0  0  0
   35.9033   13.0392    4.7094 C   0  0  0  0  0  0  0  0  0  0  0  0
   36.8685   12.6879    5.3906 O   0  0  0  0  0  0  0  0  0  0  0  0
   35.1537   14.3583    5.0093 C   0  0  0  0  0  0  0  0  0  0  0  0
   35.4025   15.0304    6.2264 O   0  0  0  0  0  0  0  0  0  0  0  0
   35.4277   14.2683    7.4138 C   0  0  0  0  0  0  0  0  0  0  0  0
   34.2396   13.3858    7.7947 C   0  0  0  0  0  0  0  0  0  0  0  0
   33.7367   13.4112    8.9190 O   0  0  0  0  0  0  0  0  0  0  0  0
   33.8605   12.4791    6.8147 N   0  0  0  0  0  0  0  0  0  0  0  0
   32.7056   11.6925    6.9607 C   0  0  0  0  0  0  0  0  0  0  0  0
   31.5557   12.2193    7.5344 C   0  0  0  0  0  0  0  0  0  0  0  0
   30.5531   11.3582    7.9343 C   0  0  0  0  0  0  0  0  0  0  0  0
   29.4527   11.9249    8.4949 O   0  0  0  0  0  0  0  0  0  0  0  0
   30.6832    9.9815    7.7842 C   0  0  0  0  0  0  0  0  0  0  0  0
   31.7823    9.4717    7.0902 C   0  0  0  0  0  0  0  0  0  0  0  0
   32.7645   10.3388    6.6337 C   0  0  0  0  0  0  0  0  0  0  0  0
   33.8318    9.8554    5.9803 F   0  0  0  0  0  0  0  0  0  0  0  0
   34.3082   12.0950    1.9219 H   0  0  0  0  0  0  0  0  0  0  0  0
   34.0528   13.5959    2.8240 H   0  0  0  0  0  0  0  0  0  0  0  0
   33.3485   12.0723    3.4297 H   0  0  0  0  0  0  0  0  0  0  0  0
   36.9119   10.7743    4.0577 H   0  0  0  0  0  0  0  0  0  0  0  0
   35.2458   10.1618    3.9236 H   0  0  0  0  0  0  0  0  0  0  0  0
   36.1281   10.7041    2.4695 H   0  0  0  0  0  0  0  0  0  0  0  0
   35.4212   15.0548    4.2067 H   0  0  0  0  0  0  0  0  0  0  0  0
   34.0733   14.2007    4.9416 H   0  0  0  0  0  0  0  0  0  0  0  0
   35.5260   14.9939    8.2263 H   0  0  0  0  0  0  0  0  0  0  0  0
   36.3395   13.6670    7.4645 H   0  0  0  0  0  0  0  0  0  0  0  0
   34.6724   11.9699    6.4573 H   0  0  0  0  0  0  0  0  0  0  0  0
   31.4609   13.2804    7.7428 H   0  0  0  0  0  0  0  0  0  0  0  0
   29.4068   11.5988    9.4222 H   0  0  0  0  0  0  0  0  0  0  0  0
   29.9138    9.3005    8.1413 H   0  0  0  0  0  0  0  0  0  0  0  0
   31.8867    8.4025    6.9382 H   0  0  0  0  0  0  0  0  0  0  0  0
  1  2  1  0
  2  3  1  0
  2  4  1  0
  4  5  2  0
  4  6  1  0
  6  7  1  0
  7  8  1  0
  8  9  1  0
  9 10  2  0
  9 11  1  0
 11 12  1  0
 12 13  2  0
 13 14  1  0
 14 15  1  0
 14 16  2  0
 16 17  1  0
 17 18  2  0
 18 19  1  0
 18 12  1  0
  1 20  1  0
  1 21  1  0
  1 22  1  0
  3 23  1  0
  3 24  1  0
  3 25  1  0
  6 26  1  0
  6 27  1  0
  8 28  1  0
  8 29  1  0
 11 30  1  0
 13 31  1  0
 15 32  1  0
 16 33  1  0
 17 34  1  0
M  END
