LIG
     RDKit          3D

 27 27  0  0  0  0  0  0  0  0999 V2000
   28.5340   14.0390    8.5970 C   0  0  0  0  0  0  0  0  0  0  0  0
   29.3000   13.3530    7.8990 C   0  0  0  0  0  0  0  0  0  0  0  0
   29.3990   13.5140    6.5850 O   0  0  0  0  0  0  0  0  0  0  0  0
   30.0510   12.3330    8.4300 N   0  0  0  0  0  0  0  0  0  0  0  0
   31.5450   11.9340    7.6020 C   0  0  0  0  0  0  0  0  0  0  0  0
   30.7220   10.8640    7.9390 C   0  0  0  0  0  0  0  0  0  0  0  0
   31.0170    9.5590    7.5720 C   0  0  0  0  0  0  0  0  0  0  0  0
   32.1560    9.3390    6.8090 C   0  0  0  0  0  0  0  0  0  0  0  0
   33.0110   10.3720    6.4380 C   0  0  0  0  0  0  0  0  0  0  0  0
   34.1980   10.0910    5.5530 F   0  0  0  0  0  0  0  0  0  0  0  0
   32.7080   11.6650    6.8730 C   0  0  0  0  0  0  0  0  0  0  0  0
   33.6520   12.7090    6.6590 N   0  0  0  0  0  0  0  0  0  0  0  0
   34.4250   13.2280    7.6390 C   0  0  0  0  0  0  0  0  0  0  0  0
   34.9120   12.5690    8.5560 O   0  0  0  0  0  0  0  0  0  0  0  0
   34.6680   14.7180    7.5670 C   0  0  0  0  0  0  0  0  0  0  0  0
   35.0470   15.1300    6.2680 O   0  0  0  0  0  0  0  0  0  0  0  0
   28.6430   13.9219    9.7315 H   0  0  0  0  0  0  0  0  0  0  0  0
   29.0362   14.7839    9.3075 H   0  0  0  0  0  0  0  0  0  0  0  0
   28.5975   15.1736    8.4513 H   0  0  0  0  0  0  0  0  0  0  0  0
   29.9338   11.8110    9.1345 H   0  0  0  0  0  0  0  0  0  0  0  0
   29.8026   11.0105    8.5111 H   0  0  0  0  0  0  0  0  0  0  0  0
   30.3831    8.7417    7.8691 H   0  0  0  0  0  0  0  0  0  0  0  0
   32.3994    8.3102    6.4806 H   0  0  0  0  0  0  0  0  0  0  0  0
   33.7471   13.0651    5.7743 H   0  0  0  0  0  0  0  0  0  0  0  0
   35.4715   14.9792    8.2635 H   0  0  0  0  0  0  0  0  0  0  0  0
   33.7460   15.2403    7.8429 H   0  0  0  0  0  0  0  0  0  0  0  0
   34.2531   15.5122    5.8490 H   0  0  0  0  0  0  0  0  0  0  0  0
  1  2  1  0
  2  3  2  0
  2  4  1  0
  4  5  1  0
  5  6  4  0
  6  7  4  0
  7  8  4  0
  8  9  4  0
  9 10  1  0
  9 11  4  0
 11 12  1  0
 12 13  1  0
 13 14  2  0
 13 15  1  0
 15 16  1  0
 11  5  4  0
  1 17  1  0
  1 18  1  0
  1 19  1  0
  4 20  1  0
  6 21  1  0
  7 22  1  0
  8 23  1  0
 12 24  1  0
 15 25  1  0
 15 26  1  0
 16 27  1  0
M  END
$$$$
