LIG
     RDKit          3D

 42 44  0  0  0  0  0  0  0  0999 V2000
   28.4820   16.7650    9.7690 C   0  0  0  0  0  0  0  0  0  0  0  0
   28.8690   15.5850    9.0100 N   0  0  0  0  0  0  0  0  0  0  0  0
   27.8900   14.7750    8.3110 C   0  0  0  0  0  0  0  0  0  0  0  0
   28.5940   13.4330    8.1660 C   0  0  0  0  0  0  0  0  0  0  0  0
   30.0580   13.6540    8.5870 C   0  0  0  0  0  0  0  0  0  0  0  0
   30.9510   13.3300    7.5050 O   0  0  0  0  0  0  0  0  0  0  0  0
   31.3600   12.0190    7.3410 C   0  0  0  0  0  0  0  0  0  0  0  0
   30.8090   10.9600    8.0540 C   0  0  0  0  0  0  0  0  0  0  0  0
   31.3020    9.7050    7.8000 C   0  0  0  0  0  0  0  0  0  0  0  0
   32.2980    9.4490    6.8970 C   0  0  0  0  0  0  0  0  0  0  0  0
   33.0044    8.4520    6.6370 F   0  0  0  0  0  0  0  0  0  0  0  0
   32.8210   10.9050    5.6820 C   0  0  0  0  0  0  0  0  0  0  0  0
   33.3300   11.7430    4.6780 N   0  0  0  0  0  0  0  0  0  0  0  0
   33.5900   13.0680    4.7540 C   0  0  0  0  0  0  0  0  0  0  0  0
   33.4420   13.7460    5.7670 O   0  0  0  0  0  0  0  0  0  0  0  0
   34.1200   13.7080    3.4770 C   0  0  0  0  0  0  0  0  0  0  0  0
   33.0230   14.1560    2.5380 C   0  0  0  0  0  0  0  0  0  0  0  0
   33.7650   14.2490    1.2210 C   0  0  0  0  0  0  0  0  0  0  0  0
   34.7960   13.1450    1.3220 C   0  0  0  0  0  0  0  0  0  0  0  0
   34.9020   12.7780    2.7050 O   0  0  0  0  0  0  0  0  0  0  0  0
   31.8610   11.3420    6.6030 C   0  0  0  0  0  0  0  0  0  0  0  0
   30.1260   15.1410    8.9140 C   0  0  0  0  0  0  0  0  0  0  0  0
   31.1310   15.8110    9.0820 O   0  0  0  0  0  0  0  0  0  0  0  0
   27.8439   17.3912    9.1436 H   0  0  0  0  0  0  0  0  0  0  0  0
   29.3869   17.3090   10.0466 H   0  0  0  0  0  0  0  0  0  0  0  0
   28.8190   17.6682    9.2579 H   0  0  0  0  0  0  0  0  0  0  0  0
   26.9707   14.6997    8.8934 H   0  0  0  0  0  0  0  0  0  0  0  0
   27.6894   15.2340    7.3398 H   0  0  0  0  0  0  0  0  0  0  0  0
   28.5119   13.0267    7.1417 H   0  0  0  0  0  0  0  0  0  0  0  0
   28.1187   12.6808    8.8255 H   0  0  0  0  0  0  0  0  0  0  0  0
   29.7344   14.6729    7.0566 H   0  0  0  0  0  0  0  0  0  0  0  0
   30.0106   11.0851    8.7580 H   0  0  0  0  0  0  0  0  0  0  0  0
   30.8615    8.8337    8.3517 H   0  0  0  0  0  0  0  0  0  0  0  0
   33.5122   11.2617    3.7939 H   0  0  0  0  0  0  0  0  0  0  0  0
   34.7925   14.5224    3.7330 H   0  0  0  0  0  0  0  0  0  0  0  0
   32.5724   15.1031    2.8307 H   0  0  0  0  0  0  0  0  0  0  0  0
   32.2273   13.4121    2.4602 H   0  0  0  0  0  0  0  0  0  0  0  0
   34.2679   15.2261    1.1534 H   0  0  0  0  0  0  0  0  0  0  0  0
   33.1114   14.1467    0.3443 H   0  0  0  0  0  0  0  0  0  0  0  0
   34.4863   12.2514    0.7533 H   0  0  0  0  0  0  0  0  0  0  0  0
   35.7846   13.4547    0.9473 H   0  0  0  0  0  0  0  0  0  0  0  0
   31.0233   10.2342    6.5584 H   0  0  0  0  0  0  0  0  0  0  0  0
  1  2  1  0
  2  3  1  0
  3  4  1  0
  4  5  1  0
  5  6  1  0
  6  7  1  0
  7  8  4  0
  8  9  4  0
  9 10  4  0
 10 11  1  0
 10 12  4  0
 12 13  1  0
 13 14  1  0
 14 15  2  0
 14 16  1  0
 16 17  1  0
 17 18  1  0
 18 19  1  0
 19 20  1  0
 12 21  4  0
  5 22  1  0
 22 23  2  0
 22  2  1  0
 21  7  4  0
 20 16  1  0
  1 24  1  0
  1 25  1  0
  1 26  1  0
  3 27  1  0
  3 28  1  0
  4 29  1  0
  4 30  1  0
  5 31  1  0
  8 32  1  0
  9 33  1  0
 13 34  1  0
 16 35  1  0
 17 36  1  0
 17 37  1  0
 18 38  1  0
 18 39  1  0
 19 40  1  0
 19 41  1  0
 21 42  1  0
M  END
$$$$
