LIG
     RDKit          3D

 45 46  0  0  0  0  0  0  0  0999 V2000
   30.4968    8.5951    8.9452 C   0  0  0  0  0  0  0  0  0  0  0  0
   31.1924    9.4937    7.9713 C   0  0  0  0  0  0  0  0  0  0  0  0
   32.2154    8.9595    7.1704 C   0  0  0  0  0  0  0  0  0  0  0  0
   32.9618    9.7413    6.2699 C   0  0  0  0  0  0  0  0  0  0  0  0
   34.1217    9.1766    5.5102 C   0  0  0  0  0  0  0  0  0  0  0  0
   32.5853   11.0540    6.0667 C   0  0  0  0  0  0  0  0  0  0  0  0
   33.2618   11.7687    5.1235 O   0  0  0  0  0  0  0  0  0  0  0  0
   32.8471   13.1115    4.8976 C   0  0  0  0  0  0  0  0  0  0  0  0
   33.4577   13.9568    5.9944 C   0  0  0  0  0  0  0  0  0  0  0  0
   33.0151   13.8972    7.1488 O   0  0  0  0  0  0  0  0  0  0  0  0
   34.5546   14.7316    5.6880 N   0  0  0  0  0  0  0  0  0  0  0  0
   35.4784   14.9149    6.7969 C   0  0  0  0  0  0  0  0  0  0  0  0
   36.5228   13.8013    6.6856 C   0  0  0  0  0  0  0  0  0  0  0  0
   37.2736   13.9671    5.4627 O   0  0  0  0  0  0  0  0  0  0  0  0
   36.3973   13.8116    4.3289 C   0  0  0  0  0  0  0  0  0  0  0  0
   35.2410   14.8145    4.3892 C   0  0  0  0  0  0  0  0  0  0  0  0
   31.5282   11.5544    6.7948 C   0  0  0  0  0  0  0  0  0  0  0  0
   30.8345   10.8102    7.7371 C   0  0  0  0  0  0  0  0  0  0  0  0
   29.8284   11.4821    8.4287 N   0  0  0  0  0  0  0  0  0  0  0  0
   29.1950   12.5972    7.9127 C   0  0  0  0  0  0  0  0  0  0  0  0
   28.9538   12.7677    6.7180 O   0  0  0  0  0  0  0  0  0  0  0  0
   28.8663   13.6055    8.9677 C   0  0  0  0  0  0  0  0  0  0  0  0
   28.6368   14.9064    8.3680 C   0  0  0  0  0  0  0  0  0  0  0  0
   28.4634   15.9713    7.9517 N   0  0  0  0  0  0  0  0  0  0  0  0
   31.2117    7.9066    9.3975 H   0  0  0  0  0  0  0  0  0  0  0  0
   29.7099    8.0259    8.4440 H   0  0  0  0  0  0  0  0  0  0  0  0
   30.0556    9.1466    9.7740 H   0  0  0  0  0  0  0  0  0  0  0  0
   32.4626    7.9098    7.2865 H   0  0  0  0  0  0  0  0  0  0  0  0
   34.5805    8.3507    6.0514 H   0  0  0  0  0  0  0  0  0  0  0  0
   33.7958    8.8193    4.5299 H   0  0  0  0  0  0  0  0  0  0  0  0
   34.9077    9.9238    5.3584 H   0  0  0  0  0  0  0  0  0  0  0  0
   33.1980   13.3759    3.9032 H   0  0  0  0  0  0  0  0  0  0  0  0
   31.7626   13.2516    4.8403 H   0  0  0  0  0  0  0  0  0  0  0  0
   34.9842   14.8856    7.7716 H   0  0  0  0  0  0  0  0  0  0  0  0
   35.9388   15.8880    6.6597 H   0  0  0  0  0  0  0  0  0  0  0  0
   36.0433   12.8225    6.6469 H   0  0  0  0  0  0  0  0  0  0  0  0
   37.2176   13.7960    7.5284 H   0  0  0  0  0  0  0  0  0  0  0  0
   36.9913   13.9743    3.4243 H   0  0  0  0  0  0  0  0  0  0  0  0
   36.0283   12.7795    4.3069 H   0  0  0  0  0  0  0  0  0  0  0  0
   34.5564   14.6960    3.5496 H   0  0  0  0  0  0  0  0  0  0  0  0
   35.6691   15.8147    4.3016 H   0  0  0  0  0  0  0  0  0  0  0  0
   31.2307   12.5811    6.6534 H   0  0  0  0  0  0  0  0  0  0  0  0
   29.5700   11.1575    9.3564 H   0  0  0  0  0  0  0  0  0  0  0  0
   29.7114   13.6939    9.6586 H   0  0  0  0  0  0  0  0  0  0  0  0
   27.9931   13.2704    9.5268 H   0  0  0  0  0  0  0  0  0  0  0  0
  1  2  1  0
  2  3  2  0
  3  4  1  0
  4  5  1  0
  4  6  2  0
  6  7  1  0
  7  8  1  0
  8  9  1  0
  9 10  2  0
  9 11  1  0
 11 12  1  0
 12 13  1  0
 13 14  1  0
 14 15  1  0
 15 16  1  0
  6 17  1  0
 17 18  2  0
 18 19  1  0
 19 20  1  0
 20 21  2  0
 20 22  1  0
 22 23  1  0
 23 24  3  0
 18  2  1  0
 16 11  1  0
  1 25  1  0
  1 26  1  0
  1 27  1  0
  3 28  1  0
  5 29  1  0
  5 30  1  0
  5 31  1  0
  8 32  1  0
  8 33  1  0
 12 34  1  0
 12 35  1  0
 13 36  1  0
 13 37  1  0
 15 38  1  0
 15 39  1  0
 16 40  1  0
 16 41  1  0
 17 42  1  0
 19 43  1  0
 22 44  1  0
 22 45  1  0
M  END
