LIG
     RDKit          3D

 38 39  0  0  0  0  0  0  0  0999 V2000
   35.2042   12.8440    6.1664 C   0  0  0  0  0  0  0  0  0  0  0  0
   33.8430   12.3817    6.6015 C   0  0  0  0  0  0  0  0  0  0  0  0
   33.2500   13.1984    7.5607 C   0  0  0  0  0  0  0  0  0  0  0  0
   32.0120   12.8802    8.0627 C   0  0  0  0  0  0  0  0  0  0  0  0
   31.3773   11.7057    7.6653 C   0  0  0  0  0  0  0  0  0  0  0  0
   30.0174   11.6262    7.9891 N   0  0  0  0  0  0  0  0  0  0  0  0
   29.2582   12.5563    7.2847 C   0  0  0  0  0  0  0  0  0  0  0  0
   29.4804   12.8423    6.1064 O   0  0  0  0  0  0  0  0  0  0  0  0
   28.1898   13.2300    8.0793 C   0  0  0  0  0  0  0  0  0  0  0  0
   28.4397   14.6657    8.0957 C   0  0  0  0  0  0  0  0  0  0  0  0
   28.6766   15.8000    8.1248 N   0  0  0  0  0  0  0  0  0  0  0  0
   31.9868   10.8089    6.8032 C   0  0  0  0  0  0  0  0  0  0  0  0
   33.1735   11.2158    6.1793 C   0  0  0  0  0  0  0  0  0  0  0  0
   33.6181   10.4202    5.1144 N   0  0  0  0  0  0  0  0  0  0  0  0
   34.5448   10.7883    4.1766 C   0  0  0  0  0  0  0  0  0  0  0  0
   35.5048   10.0256    4.0315 O   0  0  0  0  0  0  0  0  0  0  0  0
   34.4333   12.0967    3.3265 C   0  0  0  0  0  0  0  0  0  0  0  0
   33.0965   12.7957    3.1906 C   0  0  0  0  0  0  0  0  0  0  0  0
   33.3270   13.6733    1.9814 C   0  0  0  0  0  0  0  0  0  0  0  0
   34.1751   12.7835    1.1008 C   0  0  0  0  0  0  0  0  0  0  0  0
   34.8370   11.8469    1.9598 O   0  0  0  0  0  0  0  0  0  0  0  0
   35.1078   13.6803    5.4692 H   0  0  0  0  0  0  0  0  0  0  0  0
   35.8461   12.0608    5.7647 H   0  0  0  0  0  0  0  0  0  0  0  0
   35.7577   13.2532    7.0224 H   0  0  0  0  0  0  0  0  0  0  0  0
   33.7551   14.0994    7.9048 H   0  0  0  0  0  0  0  0  0  0  0  0
   31.5228   13.5701    8.7477 H   0  0  0  0  0  0  0  0  0  0  0  0
   29.5918   10.7034    7.9629 H   0  0  0  0  0  0  0  0  0  0  0  0
   28.1577   12.8450    9.0988 H   0  0  0  0  0  0  0  0  0  0  0  0
   27.2552   13.0035    7.5680 H   0  0  0  0  0  0  0  0  0  0  0  0
   31.4697    9.9137    6.4785 H   0  0  0  0  0  0  0  0  0  0  0  0
   33.7090    9.4380    5.3636 H   0  0  0  0  0  0  0  0  0  0  0  0
   35.1936   12.7917    3.6826 H   0  0  0  0  0  0  0  0  0  0  0  0
   32.3152   12.0670    2.9648 H   0  0  0  0  0  0  0  0  0  0  0  0
   32.7996   13.3656    4.0734 H   0  0  0  0  0  0  0  0  0  0  0  0
   32.4047   14.0016    1.4948 H   0  0  0  0  0  0  0  0  0  0  0  0
   33.8946   14.5656    2.2714 H   0  0  0  0  0  0  0  0  0  0  0  0
   33.5572   12.2125    0.4003 H   0  0  0  0  0  0  0  0  0  0  0  0
   34.9172   13.3481    0.5290 H   0  0  0  0  0  0  0  0  0  0  0  0
  1  2  1  0
  2  3  2  0
  3  4  1  0
  4  5  2  0
  5  6  1  0
  6  7  1  0
  7  8  2  0
  7  9  1  0
  9 10  1  0
 10 11  3  0
  5 12  1  0
 12 13  2  0
 13 14  1  0
 14 15  1  0
 15 16  2  0
 15 17  1  0
 17 18  1  0
 18 19  1  0
 19 20  1  0
 20 21  1  0
 13  2  1  0
 21 17  1  0
  1 22  1  0
  1 23  1  0
  1 24  1  0
  3 25  1  0
  4 26  1  0
  6 27  1  0
  9 28  1  0
  9 29  1  0
 12 30  1  0
 14 31  1  0
 17 32  1  0
 18 33  1  0
 18 34  1  0
 19 35  1  0
 19 36  1  0
 20 37  1  0
 20 38  1  0
M  END
