LIG
     RDKit          3D

 43 44  0  0  0  0  0  0  0  0999 V2000
   31.2258   10.1235    6.9715 C   0  0  0  0  0  0  0  0  0  0  0  0
   32.5182   10.5691    6.3995 C   0  0  0  0  0  0  0  0  0  0  0  0
   32.9824    9.6649    5.4404 C   0  0  0  0  0  0  0  0  0  0  0  0
   33.9733    9.9282    4.6014 N   0  0  0  0  0  0  0  0  0  0  0  0
   34.5587   11.1191    4.7942 C   0  0  0  0  0  0  0  0  0  0  0  0
   35.1347   11.6443    3.6768 O   0  0  0  0  0  0  0  0  0  0  0  0
   34.0681   12.1866    2.8923 C   0  0  0  0  0  0  0  0  0  0  0  0
   34.3171   13.6568    2.6292 C   0  0  0  0  0  0  0  0  0  0  0  0
   35.3673   14.1869    2.9925 O   0  0  0  0  0  0  0  0  0  0  0  0
   33.3285   14.3609    1.9467 N   0  0  0  0  0  0  0  0  0  0  0  0
   33.6690   15.6850    1.4759 C   0  0  0  0  0  0  0  0  0  0  0  0
   32.1569   13.7661    1.3258 C   0  0  0  0  0  0  0  0  0  0  0  0
   34.3499   11.9880    5.8481 C   0  0  0  0  0  0  0  0  0  0  0  0
   33.2672   11.7457    6.6582 C   0  0  0  0  0  0  0  0  0  0  0  0
   33.0997   12.6965    7.7011 N   0  0  0  0  0  0  0  0  0  0  0  0
   32.2036   13.7130    7.8711 C   0  0  0  0  0  0  0  0  0  0  0  0
   32.2116   14.3292    8.9360 O   0  0  0  0  0  0  0  0  0  0  0  0
   31.3607   14.0914    6.6822 C   0  0  0  0  0  0  0  0  0  0  0  0
   32.0019   15.0811    5.7580 C   0  0  0  0  0  0  0  0  0  0  0  0
   30.9970   15.0425    4.6320 C   0  0  0  0  0  0  0  0  0  0  0  0
   30.5482   13.5963    4.5963 C   0  0  0  0  0  0  0  0  0  0  0  0
   30.9762   13.0136    5.8162 O   0  0  0  0  0  0  0  0  0  0  0  0
   30.5301    9.9503    6.1517 H   0  0  0  0  0  0  0  0  0  0  0  0
   31.3784    9.1778    7.4817 H   0  0  0  0  0  0  0  0  0  0  0  0
   30.7727   10.8776    7.5999 H   0  0  0  0  0  0  0  0  0  0  0  0
   32.4882    8.7119    5.2713 H   0  0  0  0  0  0  0  0  0  0  0  0
   34.0755   11.6620    1.9301 H   0  0  0  0  0  0  0  0  0  0  0  0
   33.0762   12.0714    3.3459 H   0  0  0  0  0  0  0  0  0  0  0  0
   34.4252   16.1610    2.1064 H   0  0  0  0  0  0  0  0  0  0  0  0
   34.0580   15.6075    0.4559 H   0  0  0  0  0  0  0  0  0  0  0  0
   32.7738   16.3142    1.4795 H   0  0  0  0  0  0  0  0  0  0  0  0
   32.3566   13.6508    0.2556 H   0  0  0  0  0  0  0  0  0  0  0  0
   31.2980   14.4293    1.4607 H   0  0  0  0  0  0  0  0  0  0  0  0
   31.9139   12.7835    1.7281 H   0  0  0  0  0  0  0  0  0  0  0  0
   34.9199   12.9094    5.9104 H   0  0  0  0  0  0  0  0  0  0  0  0
   33.8360   12.7232    8.4045 H   0  0  0  0  0  0  0  0  0  0  0  0
   30.4583   14.5519    7.0503 H   0  0  0  0  0  0  0  0  0  0  0  0
   32.9815   14.7392    5.4069 H   0  0  0  0  0  0  0  0  0  0  0  0
   32.1189   16.0762    6.1964 H   0  0  0  0  0  0  0  0  0  0  0  0
   31.3992   15.3961    3.6818 H   0  0  0  0  0  0  0  0  0  0  0  0
   30.1409   15.6866    4.8704 H   0  0  0  0  0  0  0  0  0  0  0  0
   29.4623   13.5157    4.5009 H   0  0  0  0  0  0  0  0  0  0  0  0
   31.0011   13.0381    3.7782 H   0  0  0  0  0  0  0  0  0  0  0  0
  1  2  1  0
  2  3  2  0
  3  4  1  0
  4  5  2  0
  5  6  1  0
  6  7  1  0
  7  8  1  0
  8  9  2  0
  8 10  1  0
 10 11  1  0
 10 12  1  0
  5 13  1  0
 13 14  2  0
 14 15  1  0
 15 16  1  0
 16 17  2  0
 16 18  1  0
 18 19  1  0
 19 20  1  0
 20 21  1  0
 21 22  1  0
 14  2  1  0
 22 18  1  0
  1 23  1  0
  1 24  1  0
  1 25  1  0
  3 26  1  0
  7 27  1  0
  7 28  1  0
 11 29  1  0
 11 30  1  0
 11 31  1  0
 12 32  1  0
 12 33  1  0
 12 34  1  0
 13 35  1  0
 15 36  1  0
 18 37  1  0
 19 38  1  0
 19 39  1  0
 20 40  1  0
 20 41  1  0
 21 42  1  0
 21 43  1  0
M  END
