LIG
     RDKit          3D

 40 41  0  0  0  0  0  0  0  0999 V2000
    6.5232    0.9948    1.6760 C   0  0  0  0  0  0  0  0  0  0  0  0
    5.0272    0.9010    1.5041 C   0  0  0  0  0  0  0  0  0  0  0  0
    4.2702    1.4245    2.3120 O   0  0  0  0  0  0  0  0  0  0  0  0
    4.6772    0.1607    0.3879 N   0  0  0  0  0  0  0  0  0  0  0  0
    3.3736   -0.1362   -0.0819 C   0  0  0  0  0  0  0  0  0  0  0  0
    2.2207    0.3227    0.5552 C   0  0  0  0  0  0  0  0  0  0  0  0
    0.9840   -0.0131    0.0281 C   0  0  0  0  0  0  0  0  0  0  0  0
   -0.1205    0.4689    0.6993 O   0  0  0  0  0  0  0  0  0  0  0  0
   -1.3495    0.0804    0.0978 C   0  0  0  0  0  0  0  0  0  0  0  0
   -2.5499    0.6328    0.8758 C   0  0  0  0  0  0  0  0  0  0  0  0
   -2.4117    1.2993    1.9033 O   0  0  0  0  0  0  0  0  0  0  0  0
   -3.8168    0.3612    0.3498 N   0  0  0  0  0  0  0  0  0  0  0  0
   -4.0716   -0.6907   -0.6406 C   0  0  0  0  0  0  0  0  0  0  0  0
   -5.3785   -0.4494   -1.4025 C   0  0  0  0  0  0  0  0  0  0  0  0
   -6.4768   -0.2543   -0.5026 O   0  0  0  0  0  0  0  0  0  0  0  0
   -6.2413    0.8949    0.3247 C   0  0  0  0  0  0  0  0  0  0  0  0
   -4.9782    0.7176    1.1697 C   0  0  0  0  0  0  0  0  0  0  0  0
    0.8160   -0.7656   -1.0775 N   0  0  0  0  0  0  0  0  0  0  0  0
    1.9410   -1.1998   -1.6802 C   0  0  0  0  0  0  0  0  0  0  0  0
    3.2345   -0.9237   -1.2391 C   0  0  0  0  0  0  0  0  0  0  0  0
    4.3991   -1.4727   -2.0091 C   0  0  0  0  0  0  0  0  0  0  0  0
    6.7627    1.8387    2.3296 H   0  0  0  0  0  0  0  0  0  0  0  0
    7.0145    1.1611    0.7130 H   0  0  0  0  0  0  0  0  0  0  0  0
    6.8957    0.0711    2.1265 H   0  0  0  0  0  0  0  0  0  0  0  0
    5.4464   -0.2176   -0.1476 H   0  0  0  0  0  0  0  0  0  0  0  0
    2.2446    0.9343    1.4485 H   0  0  0  0  0  0  0  0  0  0  0  0
   -1.4320   -1.0134    0.1016 H   0  0  0  0  0  0  0  0  0  0  0  0
   -1.4066    0.4846   -0.9204 H   0  0  0  0  0  0  0  0  0  0  0  0
   -4.1316   -1.6325   -0.0822 H   0  0  0  0  0  0  0  0  0  0  0  0
   -3.2450   -0.7705   -1.3507 H   0  0  0  0  0  0  0  0  0  0  0  0
   -5.6091   -1.3152   -2.0311 H   0  0  0  0  0  0  0  0  0  0  0  0
   -5.2944    0.4259   -2.0577 H   0  0  0  0  0  0  0  0  0  0  0  0
   -7.1120    1.0235    0.9752 H   0  0  0  0  0  0  0  0  0  0  0  0
   -6.1662    1.7834   -0.3134 H   0  0  0  0  0  0  0  0  0  0  0  0
   -5.1185   -0.1045    1.8820 H   0  0  0  0  0  0  0  0  0  0  0  0
   -4.7821    1.6305    1.7415 H   0  0  0  0  0  0  0  0  0  0  0  0
    1.7660   -1.8031   -2.5680 H   0  0  0  0  0  0  0  0  0  0  0  0
    4.9974   -2.1343   -1.3743 H   0  0  0  0  0  0  0  0  0  0  0  0
    4.0719   -2.0579   -2.8753 H   0  0  0  0  0  0  0  0  0  0  0  0
    5.0265   -0.6573   -2.3833 H   0  0  0  0  0  0  0  0  0  0  0  0
  1  2  1  0
  2  3  2  0
  2  4  1  0
  4  5  1  0
  5  6  2  0
  6  7  1  0
  7  8  1  0
  8  9  1  0
  9 10  1  0
 10 11  2  0
 10 12  1  0
 12 13  1  0
 13 14  1  0
 14 15  1  0
 15 16  1  0
 16 17  1  0
  7 18  2  0
 18 19  1  0
 19 20  2  0
 20 21  1  0
 20  5  1  0
 17 12  1  0
  1 22  1  0
  1 23  1  0
  1 24  1  0
  4 25  1  0
  6 26  1  0
  9 27  1  0
  9 28  1  0
 13 29  1  0
 13 30  1  0
 14 31  1  0
 14 32  1  0
 16 33  1  0
 16 34  1  0
 17 35  1  0
 17 36  1  0
 19 37  1  0
 21 38  1  0
 21 39  1  0
 21 40  1  0
M  END
