LIG
     RDKit          3D

 40 41  0  0  0  0  0  0  0  0999 V2000
   34.4770    9.6170    4.1420 C   0  0  0  0  0  0  0  0  0  0  0  0
   34.7220   11.0190    4.6240 C   0  0  0  0  0  0  0  0  0  0  0  0
   35.7630   11.6170    4.3630 O   0  0  0  0  0  0  0  0  0  0  0  0
   33.6960   11.5950    5.3080 N   0  0  0  0  0  0  0  0  0  0  0  0
   32.7983   10.4936    7.2424 C   0  0  0  0  0  0  0  0  0  0  0  0
   33.3470   10.2740    7.4930 C   0  0  0  0  0  0  0  0  0  0  0  0
   32.8900   11.5720    7.6690 C   0  0  0  0  0  0  0  0  0  0  0  0
   33.3940   12.4720    6.7660 O   0  0  0  0  0  0  0  0  0  0  0  0
   32.5070   13.2300    6.0470 C   0  0  0  0  0  0  0  0  0  0  0  0
   32.8430   14.5690    6.5820 C   0  0  0  0  0  0  0  0  0  0  0  0
   32.2450   15.0040    7.5510 O   0  0  0  0  0  0  0  0  0  0  0  0
   33.9260   15.1770    6.0590 N   0  0  0  0  0  0  0  0  0  0  0  0
   34.5050   15.1130    4.7140 C   0  0  0  0  0  0  0  0  0  0  0  0
   35.9790   14.7950    4.8070 C   0  0  0  0  0  0  0  0  0  0  0  0
   36.6530   15.7410    5.6230 O   0  0  0  0  0  0  0  0  0  0  0  0
   36.2000   15.5640    6.9400 C   0  0  0  0  0  0  0  0  0  0  0  0
   34.7260   15.9040    7.0650 C   0  0  0  0  0  0  0  0  0  0  0  0
   31.8380   11.8440    8.5230 N   0  0  0  0  0  0  0  0  0  0  0  0
   31.1650   10.7950    9.1290 C   0  0  0  0  0  0  0  0  0  0  0  0
   31.5630    9.4800    8.9430 C   0  0  0  0  0  0  0  0  0  0  0  0
   30.8480    8.3410    9.6370 C   0  0  0  0  0  0  0  0  0  0  0  0
   34.6082    8.9141    4.9709 H   0  0  0  0  0  0  0  0  0  0  0  0
   33.4641    9.5227    3.7341 H   0  0  0  0  0  0  0  0  0  0  0  0
   35.1895    9.3697    3.3473 H   0  0  0  0  0  0  0  0  0  0  0  0
   32.9512   10.9748    5.6126 H   0  0  0  0  0  0  0  0  0  0  0  0
   34.2983   10.1314    6.9976 H   0  0  0  0  0  0  0  0  0  0  0  0
   32.6236   13.1403    5.0179 H   0  0  0  0  0  0  0  0  0  0  0  0
   31.5379   12.9922    6.3894 H   0  0  0  0  0  0  0  0  0  0  0  0
   34.3469   16.0946    4.2631 H   0  0  0  0  0  0  0  0  0  0  0  0
   33.9907   14.3593    4.1225 H   0  0  0  0  0  0  0  0  0  0  0  0
   36.4403   14.8149    3.8205 H   0  0  0  0  0  0  0  0  0  0  0  0
   36.1378   13.8048    5.2363 H   0  0  0  0  0  0  0  0  0  0  0  0
   36.3762   14.5311    7.2296 H   0  0  0  0  0  0  0  0  0  0  0  0
   36.7883   16.2096    7.5898 H   0  0  0  0  0  0  0  0  0  0  0  0
   34.5697   16.9849    6.9690 H   0  0  0  0  0  0  0  0  0  0  0  0
   34.3368   15.5940    8.0442 H   0  0  0  0  0  0  0  0  0  0  0  0
   30.3422   11.0876    9.7298 H   0  0  0  0  0  0  0  0  0  0  0  0
   30.0649    8.7337   10.2898 H   0  0  0  0  0  0  0  0  0  0  0  0
   31.5348    7.7567   10.2543 H   0  0  0  0  0  0  0  0  0  0  0  0
   30.4116    7.6667    8.8965 H   0  0  0  0  0  0  0  0  0  0  0  0
  1  2  1  0
  2  3  2  0
  2  4  1  0
  4  5  1  0
  5  6  4  0
  6  7  4  0
  7  8  1  0
  8  9  1  0
  9 10  1  0
 10 11  2  0
 10 12  1  0
 12 13  1  0
 13 14  1  0
 14 15  1  0
 15 16  1  0
 16 17  1  0
  7 18  4  0
 18 19  4  0
 19 20  4  0
 20 21  1  0
 20  5  4  0
 17 12  1  0
  1 22  1  0
  1 23  1  0
  1 24  1  0
  4 25  1  0
  6 26  1  0
  9 27  1  0
  9 28  1  0
 13 29  1  0
 13 30  1  0
 14 31  1  0
 14 32  1  0
 16 33  1  0
 16 34  1  0
 17 35  1  0
 17 36  1  0
 19 37  1  0
 21 38  1  0
 21 39  1  0
 21 40  1  0
M  END
$$$$
LIG
     RDKit          3D

 40 41  0  0  0  0  0  0  0  0999 V2000
   34.4770    9.6170    4.1420 C   0  0  0  0  0  0  0  0  0  0  0  0
   34.7220   11.0190    4.6240 C   0  0  0  0  0  0  0  0  0  0  0  0
   35.7630   11.6170    4.3630 O   0  0  0  0  0  0  0  0  0  0  0  0
   33.6960   11.5950    5.3080 N   0  0  0  0  0  0  0  0  0  0  0  0
   32.8113   10.4871    7.2502 C   0  0  0  0  0  0  0  0  0  0  0  0
   33.3470   10.2740    7.4930 C   0  0  0  0  0  0  0  0  0  0  0  0
   32.8900   11.5720    7.6690 C   0  0  0  0  0  0  0  0  0  0  0  0
   33.3940   12.4720    6.7660 O   0  0  0  0  0  0  0  0  0  0  0  0
   32.5070   13.2300    6.0470 C   0  0  0  0  0  0  0  0  0  0  0  0
   32.8430   14.5690    6.5820 C   0  0  0  0  0  0  0  0  0  0  0  0
   32.2450   15.0040    7.5510 O   0  0  0  0  0  0  0  0  0  0  0  0
   33.9260   15.1770    6.0590 N   0  0  0  0  0  0  0  0  0  0  0  0
   34.7260   15.9040    7.0650 C   0  0  0  0  0  0  0  0  0  0  0  0
   36.2000   15.5640    6.9400 C   0  0  0  0  0  0  0  0  0  0  0  0
   36.6530   15.7410    5.6230 O   0  0  0  0  0  0  0  0  0  0  0  0
   35.9790   14.7950    4.8070 C   0  0  0  0  0  0  0  0  0  0  0  0
   34.5050   15.1130    4.7140 C   0  0  0  0  0  0  0  0  0  0  0  0
   31.8380   11.8440    8.5230 N   0  0  0  0  0  0  0  0  0  0  0  0
   31.1650   10.7950    9.1290 C   0  0  0  0  0  0  0  0  0  0  0  0
   31.5630    9.4800    8.9430 C   0  0  0  0  0  0  0  0  0  0  0  0
   30.8480    8.3410    9.6370 C   0  0  0  0  0  0  0  0  0  0  0  0
   34.3377    8.9526    5.0017 H   0  0  0  0  0  0  0  0  0  0  0  0
   33.5761    9.5967    3.5212 H   0  0  0  0  0  0  0  0  0  0  0  0
   35.3289    9.2445    3.5640 H   0  0  0  0  0  0  0  0  0  0  0  0
   33.2084   11.0041    5.9756 H   0  0  0  0  0  0  0  0  0  0  0  0
   34.2209   10.1213    6.8738 H   0  0  0  0  0  0  0  0  0  0  0  0
   32.6888   13.2229    4.9953 H   0  0  0  0  0  0  0  0  0  0  0  0
   31.4961   13.0054    6.3147 H   0  0  0  0  0  0  0  0  0  0  0  0
   34.3566   15.6760    8.0705 H   0  0  0  0  0  0  0  0  0  0  0  0
   34.5570   16.9707    6.8723 H   0  0  0  0  0  0  0  0  0  0  0  0
   36.3733   14.5255    7.2253 H   0  0  0  0  0  0  0  0  0  0  0  0
   36.7918   16.2007    7.5956 H   0  0  0  0  0  0  0  0  0  0  0  0
   36.4404   14.8164    3.8209 H   0  0  0  0  0  0  0  0  0  0  0  0
   36.1350   13.8094    5.2381 H   0  0  0  0  0  0  0  0  0  0  0  0
   33.9741   14.3166    4.1849 H   0  0  0  0  0  0  0  0  0  0  0  0
   34.3469   16.0565    4.1909 H   0  0  0  0  0  0  0  0  0  0  0  0
   30.3413   11.0881    9.7300 H   0  0  0  0  0  0  0  0  0  0  0  0
   31.0807    7.3810    9.1694 H   0  0  0  0  0  0  0  0  0  0  0  0
   30.1833    7.8330    8.9345 H   0  0  0  0  0  0  0  0  0  0  0  0
   31.5757    7.6324   10.0393 H   0  0  0  0  0  0  0  0  0  0  0  0
  1  2  1  0
  2  3  2  0
  2  4  1  0
  4  5  1  0
  5  6  4  0
  6  7  4  0
  7  8  1  0
  8  9  1  0
  9 10  1  0
 10 11  2  0
 10 12  1  0
 12 13  1  0
 13 14  1  0
 14 15  1  0
 15 16  1  0
 16 17  1  0
  7 18  4  0
 18 19  4  0
 19 20  4  0
 20 21  1  0
 20  5  4  0
 17 12  1  0
  1 22  1  0
  1 23  1  0
  1 24  1  0
  4 25  1  0
  6 26  1  0
  9 27  1  0
  9 28  1  0
 13 29  1  0
 13 30  1  0
 14 31  1  0
 14 32  1  0
 16 33  1  0
 16 34  1  0
 17 35  1  0
 17 36  1  0
 19 37  1  0
 21 38  1  0
 21 39  1  0
 21 40  1  0
M  END
$$$$
LIG
     RDKit          3D

 40 41  0  0  0  0  0  0  0  0999 V2000
   34.4770    9.6170    4.1420 C   0  0  0  0  0  0  0  0  0  0  0  0
   34.7220   11.0190    4.6240 C   0  0  0  0  0  0  0  0  0  0  0  0
   35.7630   11.6170    4.3630 O   0  0  0  0  0  0  0  0  0  0  0  0
   33.6960   11.5950    5.3080 N   0  0  0  0  0  0  0  0  0  0  0  0
   32.7737   10.5687    7.2542 C   0  0  0  0  0  0  0  0  0  0  0  0
   31.8380   11.8440    8.5230 C   0  0  0  0  0  0  0  0  0  0  0  0
   32.8900   11.5720    7.6690 C   0  0  0  0  0  0  0  0  0  0  0  0
   33.3940   12.4720    6.7660 O   0  0  0  0  0  0  0  0  0  0  0  0
   32.5070   13.2300    6.0470 C   0  0  0  0  0  0  0  0  0  0  0  0
   32.8430   14.5690    6.5820 C   0  0  0  0  0  0  0  0  0  0  0  0
   32.2450   15.0040    7.5510 O   0  0  0  0  0  0  0  0  0  0  0  0
   33.9260   15.1770    6.0590 N   0  0  0  0  0  0  0  0  0  0  0  0
   34.5050   15.1130    4.7140 C   0  0  0  0  0  0  0  0  0  0  0  0
   35.9790   14.7950    4.8070 C   0  0  0  0  0  0  0  0  0  0  0  0
   36.6530   15.7410    5.6230 O   0  0  0  0  0  0  0  0  0  0  0  0
   36.2000   15.5640    6.9400 C   0  0  0  0  0  0  0  0  0  0  0  0
   34.7260   15.9040    7.0650 C   0  0  0  0  0  0  0  0  0  0  0  0
   33.3470   10.2740    7.4930 N   0  0  0  0  0  0  0  0  0  0  0  0
   32.6580    9.2460    8.1260 C   0  0  0  0  0  0  0  0  0  0  0  0
   31.5630    9.4800    8.9430 C   0  0  0  0  0  0  0  0  0  0  0  0
   30.8480    8.3410    9.6370 C   0  0  0  0  0  0  0  0  0  0  0  0
   33.4587    9.2935    4.3812 H   0  0  0  0  0  0  0  0  0  0  0  0
   33.6374    9.6124    3.4404 H   0  0  0  0  0  0  0  0  0  0  0  0
   34.2374    8.9723    4.9939 H   0  0  0  0  0  0  0  0  0  0  0  0
   33.0680   10.9631    5.7962 H   0  0  0  0  0  0  0  0  0  0  0  0
   30.8493   11.9615    8.0949 H   0  0  0  0  0  0  0  0  0  0  0  0
   32.7349   13.2082    5.0068 H   0  0  0  0  0  0  0  0  0  0  0  0
   31.5005   13.0075    6.3172 H   0  0  0  0  0  0  0  0  0  0  0  0
   34.3416   16.0536    4.1837 H   0  0  0  0  0  0  0  0  0  0  0  0
   33.9689   14.3185    4.1860 H   0  0  0  0  0  0  0  0  0  0  0  0
   36.4384   14.8220    3.8215 H   0  0  0  0  0  0  0  0  0  0  0  0
   36.1351   13.8098    5.2361 H   0  0  0  0  0  0  0  0  0  0  0  0
   36.7919   16.2031    7.5952 H   0  0  0  0  0  0  0  0  0  0  0  0
   36.3774   14.5265    7.2300 H   0  0  0  0  0  0  0  0  0  0  0  0
   34.3589   15.6698    8.0677 H   0  0  0  0  0  0  0  0  0  0  0  0
   34.5580   16.9703    6.8733 H   0  0  0  0  0  0  0  0  0  0  0  0
   33.0486    8.2736    7.9248 H   0  0  0  0  0  0  0  0  0  0  0  0
   30.5831    7.5683    8.9115 H   0  0  0  0  0  0  0  0  0  0  0  0
   29.9248    8.6814   10.1129 H   0  0  0  0  0  0  0  0  0  0  0  0
   31.4865    7.9173   10.4156 H   0  0  0  0  0  0  0  0  0  0  0  0
  1  2  1  0
  2  3  2  0
  2  4  1  0
  4  5  1  0
  5  6  4  0
  6  7  4  0
  7  8  1  0
  8  9  1  0
  9 10  1  0
 10 11  2  0
 10 12  1  0
 12 13  1  0
 13 14  1  0
 14 15  1  0
 15 16  1  0
 16 17  1  0
  7 18  4  0
 18 19  4  0
 19 20  4  0
 20 21  1  0
 20  5  4  0
 17 12  1  0
  1 22  1  0
  1 23  1  0
  1 24  1  0
  4 25  1  0
  6 26  1  0
  9 27  1  0
  9 28  1  0
 13 29  1  0
 13 30  1  0
 14 31  1  0
 14 32  1  0
 16 33  1  0
 16 34  1  0
 17 35  1  0
 17 36  1  0
 19 37  1  0
 21 38  1  0
 21 39  1  0
 21 40  1  0
M  END
$$$$
LIG
     RDKit          3D

 40 41  0  0  0  0  0  0  0  0999 V2000
   34.4770    9.6170    4.1420 C   0  0  0  0  0  0  0  0  0  0  0  0
   34.7220   11.0190    4.6240 C   0  0  0  0  0  0  0  0  0  0  0  0
   35.7630   11.6170    4.3630 O   0  0  0  0  0  0  0  0  0  0  0  0
   33.6960   11.5950    5.3080 N   0  0  0  0  0  0  0  0  0  0  0  0
   32.7837   10.5657    7.2590 C   0  0  0  0  0  0  0  0  0  0  0  0
   31.8380   11.8440    8.5230 C   0  0  0  0  0  0  0  0  0  0  0  0
   32.8900   11.5720    7.6690 C   0  0  0  0  0  0  0  0  0  0  0  0
   33.3940   12.4720    6.7660 O   0  0  0  0  0  0  0  0  0  0  0  0
   32.5070   13.2300    6.0470 C   0  0  0  0  0  0  0  0  0  0  0  0
   32.8430   14.5690    6.5820 C   0  0  0  0  0  0  0  0  0  0  0  0
   32.2450   15.0040    7.5510 O   0  0  0  0  0  0  0  0  0  0  0  0
   33.9260   15.1770    6.0590 N   0  0  0  0  0  0  0  0  0  0  0  0
   34.7260   15.9040    7.0650 C   0  0  0  0  0  0  0  0  0  0  0  0
   36.2000   15.5640    6.9400 C   0  0  0  0  0  0  0  0  0  0  0  0
   36.6530   15.7410    5.6230 O   0  0  0  0  0  0  0  0  0  0  0  0
   35.9790   14.7950    4.8070 C   0  0  0  0  0  0  0  0  0  0  0  0
   34.5050   15.1130    4.7140 C   0  0  0  0  0  0  0  0  0  0  0  0
   33.3470   10.2740    7.4930 N   0  0  0  0  0  0  0  0  0  0  0  0
   32.6580    9.2460    8.1260 C   0  0  0  0  0  0  0  0  0  0  0  0
   31.5630    9.4800    8.9430 C   0  0  0  0  0  0  0  0  0  0  0  0
   30.8480    8.3410    9.6370 C   0  0  0  0  0  0  0  0  0  0  0  0
   33.9439    9.6160    3.1856 H   0  0  0  0  0  0  0  0  0  0  0  0
   33.4016    9.4549    4.0218 H   0  0  0  0  0  0  0  0  0  0  0  0
   33.8596    9.0819    4.8709 H   0  0  0  0  0  0  0  0  0  0  0  0
   33.3370   12.4690    4.9352 H   0  0  0  0  0  0  0  0  0  0  0  0
   31.8149   12.8082    9.0162 H   0  0  0  0  0  0  0  0  0  0  0  0
   31.5128   12.9599    6.1936 H   0  0  0  0  0  0  0  0  0  0  0  0
   32.8189   13.2078    5.0402 H   0  0  0  0  0  0  0  0  0  0  0  0
   34.5739   16.9802    6.9632 H   0  0  0  0  0  0  0  0  0  0  0  0
   34.3431   15.5909    8.0411 H   0  0  0  0  0  0  0  0  0  0  0  0
   36.3654   14.5155    7.2257 H   0  0  0  0  0  0  0  0  0  0  0  0
   36.8031   16.1839    7.6224 H   0  0  0  0  0  0  0  0  0  0  0  0
   36.1255   13.8023    5.2512 H   0  0  0  0  0  0  0  0  0  0  0  0
   36.4474   14.7812    3.8122 H   0  0  0  0  0  0  0  0  0  0  0  0
   34.3531   16.0418    4.1728 H   0  0  0  0  0  0  0  0  0  0  0  0
   33.9732   14.3150    4.1921 H   0  0  0  0  0  0  0  0  0  0  0  0
   33.0490    8.2741    7.9243 H   0  0  0  0  0  0  0  0  0  0  0  0
   30.0092    7.9747    9.0397 H   0  0  0  0  0  0  0  0  0  0  0  0
   31.5357    7.5063    9.7917 H   0  0  0  0  0  0  0  0  0  0  0  0
   30.4505    8.6786   10.5970 H   0  0  0  0  0  0  0  0  0  0  0  0
  1  2  1  0
  2  3  2  0
  2  4  1  0
  4  5  1  0
  5  6  4  0
  6  7  4  0
  7  8  1  0
  8  9  1  0
  9 10  1  0
 10 11  2  0
 10 12  1  0
 12 13  1  0
 13 14  1  0
 14 15  1  0
 15 16  1  0
 16 17  1  0
  7 18  4  0
 18 19  4  0
 19 20  4  0
 20 21  1  0
 20  5  4  0
 17 12  1  0
  1 22  1  0
  1 23  1  0
  1 24  1  0
  4 25  1  0
  6 26  1  0
  9 27  1  0
  9 28  1  0
 13 29  1  0
 13 30  1  0
 14 31  1  0
 14 32  1  0
 16 33  1  0
 16 34  1  0
 17 35  1  0
 17 36  1  0
 19 37  1  0
 21 38  1  0
 21 39  1  0
 21 40  1  0
M  END
$$$$
LIG
     RDKit          3D

 40 41  0  0  0  0  0  0  0  0999 V2000
   34.4770    9.6170    4.1420 C   0  0  0  0  0  0  0  0  0  0  0  0
   34.7220   11.0190    4.6240 C   0  0  0  0  0  0  0  0  0  0  0  0
   35.7630   11.6170    4.3630 O   0  0  0  0  0  0  0  0  0  0  0  0
   33.6960   11.5950    5.3080 N   0  0  0  0  0  0  0  0  0  0  0  0
   32.7819   10.5654    7.2582 C   0  0  0  0  0  0  0  0  0  0  0  0
   31.8380   11.8440    8.5230 C   0  0  0  0  0  0  0  0  0  0  0  0
   32.8900   11.5720    7.6690 C   0  0  0  0  0  0  0  0  0  0  0  0
   33.3940   12.4720    6.7660 O   0  0  0  0  0  0  0  0  0  0  0  0
   32.5070   13.2300    6.0470 C   0  0  0  0  0  0  0  0  0  0  0  0
   32.8430   14.5690    6.5820 C   0  0  0  0  0  0  0  0  0  0  0  0
   32.2450   15.0040    7.5510 O   0  0  0  0  0  0  0  0  0  0  0  0
   33.9260   15.1770    6.0590 N   0  0  0  0  0  0  0  0  0  0  0  0
   34.5050   15.1130    4.7140 C   0  0  0  0  0  0  0  0  0  0  0  0
   35.9790   14.7950    4.8070 C   0  0  0  0  0  0  0  0  0  0  0  0
   36.6530   15.7410    5.6230 O   0  0  0  0  0  0  0  0  0  0  0  0
   36.2000   15.5640    6.9400 C   0  0  0  0  0  0  0  0  0  0  0  0
   34.7260   15.9040    7.0650 C   0  0  0  0  0  0  0  0  0  0  0  0
   33.3470   10.2740    7.4930 N   0  0  0  0  0  0  0  0  0  0  0  0
   32.6580    9.2460    8.1260 C   0  0  0  0  0  0  0  0  0  0  0  0
   31.5630    9.4800    8.9430 C   0  0  0  0  0  0  0  0  0  0  0  0
   30.8480    8.3410    9.6370 C   0  0  0  0  0  0  0  0  0  0  0  0
   33.9927    9.0330    4.9322 H   0  0  0  0  0  0  0  0  0  0  0  0
   35.4258    9.1330    3.8863 H   0  0  0  0  0  0  0  0  0  0  0  0
   33.8217    9.6348    3.2648 H   0  0  0  0  0  0  0  0  0  0  0  0
   33.2893   11.0448    6.0595 H   0  0  0  0  0  0  0  0  0  0  0  0
   31.9204   12.7008    9.1808 H   0  0  0  0  0  0  0  0  0  0  0  0
   32.6846   13.2119    4.9902 H   0  0  0  0  0  0  0  0  0  0  0  0
   31.4885   13.0082    6.3041 H   0  0  0  0  0  0  0  0  0  0  0  0
   33.9825   14.3680    4.1106 H   0  0  0  0  0  0  0  0  0  0  0  0
   34.3472   16.0976    4.2639 H   0  0  0  0  0  0  0  0  0  0  0  0
   36.1303   13.8123    5.2472 H   0  0  0  0  0  0  0  0  0  0  0  0
   36.4399   14.8104    3.8243 H   0  0  0  0  0  0  0  0  0  0  0  0
   36.3735   14.5263    7.2253 H   0  0  0  0  0  0  0  0  0  0  0  0
   36.7950   16.1992    7.5994 H   0  0  0  0  0  0  0  0  0  0  0  0
   34.3396   15.5899    8.0418 H   0  0  0  0  0  0  0  0  0  0  0  0
   34.5730   16.9799    6.9639 H   0  0  0  0  0  0  0  0  0  0  0  0
   33.0495    8.2735    7.9246 H   0  0  0  0  0  0  0  0  0  0  0  0
   30.4142    8.6891   10.5774 H   0  0  0  0  0  0  0  0  0  0  0  0
   31.2843    8.1356   10.6178 H   0  0  0  0  0  0  0  0  0  0  0  0
   29.7963    8.5959    9.7872 H   0  0  0  0  0  0  0  0  0  0  0  0
  1  2  1  0
  2  3  2  0
  2  4  1  0
  4  5  1  0
  5  6  4  0
  6  7  4  0
  7  8  1  0
  8  9  1  0
  9 10  1  0
 10 11  2  0
 10 12  1  0
 12 13  1  0
 13 14  1  0
 14 15  1  0
 15 16  1  0
 16 17  1  0
  7 18  4  0
 18 19  4  0
 19 20  4  0
 20 21  1  0
 20  5  4  0
 17 12  1  0
  1 22  1  0
  1 23  1  0
  1 24  1  0
  4 25  1  0
  6 26  1  0
  9 27  1  0
  9 28  1  0
 13 29  1  0
 13 30  1  0
 14 31  1  0
 14 32  1  0
 16 33  1  0
 16 34  1  0
 17 35  1  0
 17 36  1  0
 19 37  1  0
 21 38  1  0
 21 39  1  0
 21 40  1  0
M  END
$$$$
LIG
     RDKit          3D

 40 41  0  0  0  0  0  0  0  0999 V2000
   34.4770    9.6170    4.1420 C   0  0  0  0  0  0  0  0  0  0  0  0
   34.7220   11.0190    4.6240 C   0  0  0  0  0  0  0  0  0  0  0  0
   35.7630   11.6170    4.3630 O   0  0  0  0  0  0  0  0  0  0  0  0
   33.6960   11.5950    5.3080 N   0  0  0  0  0  0  0  0  0  0  0  0
   32.8150   10.4859    7.2525 C   0  0  0  0  0  0  0  0  0  0  0  0
   33.3470   10.2740    7.4930 C   0  0  0  0  0  0  0  0  0  0  0  0
   32.8900   11.5720    7.6690 C   0  0  0  0  0  0  0  0  0  0  0  0
   33.3940   12.4720    6.7660 O   0  0  0  0  0  0  0  0  0  0  0  0
   32.5070   13.2300    6.0470 C   0  0  0  0  0  0  0  0  0  0  0  0
   32.8430   14.5690    6.5820 C   0  0  0  0  0  0  0  0  0  0  0  0
   32.2450   15.0040    7.5510 O   0  0  0  0  0  0  0  0  0  0  0  0
   33.9260   15.1770    6.0590 N   0  0  0  0  0  0  0  0  0  0  0  0
   34.7260   15.9040    7.0650 C   0  0  0  0  0  0  0  0  0  0  0  0
   36.2000   15.5640    6.9400 C   0  0  0  0  0  0  0  0  0  0  0  0
   36.6530   15.7410    5.6230 O   0  0  0  0  0  0  0  0  0  0  0  0
   35.9790   14.7950    4.8070 C   0  0  0  0  0  0  0  0  0  0  0  0
   34.5050   15.1130    4.7140 C   0  0  0  0  0  0  0  0  0  0  0  0
   31.8380   11.8440    8.5230 N   0  0  0  0  0  0  0  0  0  0  0  0
   31.1650   10.7950    9.1290 C   0  0  0  0  0  0  0  0  0  0  0  0
   31.5630    9.4800    8.9430 C   0  0  0  0  0  0  0  0  0  0  0  0
   30.8480    8.3410    9.6370 C   0  0  0  0  0  0  0  0  0  0  0  0
   34.0066    9.6428    3.1532 H   0  0  0  0  0  0  0  0  0  0  0  0
   35.4237    9.0723    4.0578 H   0  0  0  0  0  0  0  0  0  0  0  0
   33.8111    9.0967    4.8382 H   0  0  0  0  0  0  0  0  0  0  0  0
   33.2362   12.3800    4.8559 H   0  0  0  0  0  0  0  0  0  0  0  0
   32.8797    9.6687    6.7276 H   0  0  0  0  0  0  0  0  0  0  0  0
   31.5145   12.9480    6.1837 H   0  0  0  0  0  0  0  0  0  0  0  0
   32.8184   13.2145    5.0388 H   0  0  0  0  0  0  0  0  0  0  0  0
   34.5669   16.9839    6.9648 H   0  0  0  0  0  0  0  0  0  0  0  0
   34.3373   15.5934    8.0437 H   0  0  0  0  0  0  0  0  0  0  0  0
   36.7898   16.2081    7.5915 H   0  0  0  0  0  0  0  0  0  0  0  0
   36.3760   14.5303    7.2289 H   0  0  0  0  0  0  0  0  0  0  0  0
   36.1363   13.8064    5.2381 H   0  0  0  0  0  0  0  0  0  0  0  0
   36.4401   14.8148    3.8216 H   0  0  0  0  0  0  0  0  0  0  0  0
   33.9818   14.3601    4.1249 H   0  0  0  0  0  0  0  0  0  0  0  0
   34.3488   16.0959    4.2632 H   0  0  0  0  0  0  0  0  0  0  0  0
   30.3417   11.0875    9.7294 H   0  0  0  0  0  0  0  0  0  0  0  0
   31.0663    8.3593   10.7073 H   0  0  0  0  0  0  0  0  0  0  0  0
   31.5723    7.6967   10.1410 H   0  0  0  0  0  0  0  0  0  0  0  0
   31.1716    7.3721    9.2485 H   0  0  0  0  0  0  0  0  0  0  0  0
  1  2  1  0
  2  3  2  0
  2  4  1  0
  4  5  1  0
  5  6  4  0
  6  7  4  0
  7  8  1  0
  8  9  1  0
  9 10  1  0
 10 11  2  0
 10 12  1  0
 12 13  1  0
 13 14  1  0
 14 15  1  0
 15 16  1  0
 16 17  1  0
  7 18  4  0
 18 19  4  0
 19 20  4  0
 20 21  1  0
 20  5  4  0
 17 12  1  0
  1 22  1  0
  1 23  1  0
  1 24  1  0
  4 25  1  0
  6 26  1  0
  9 27  1  0
  9 28  1  0
 13 29  1  0
 13 30  1  0
 14 31  1  0
 14 32  1  0
 16 33  1  0
 16 34  1  0
 17 35  1  0
 17 36  1  0
 19 37  1  0
 21 38  1  0
 21 39  1  0
 21 40  1  0
M  END
$$$$
LIG
     RDKit          3D

 40 41  0  0  0  0  0  0  0  0999 V2000
   34.4770    9.6170    4.1420 C   0  0  0  0  0  0  0  0  0  0  0  0
   34.7220   11.0190    4.6240 C   0  0  0  0  0  0  0  0  0  0  0  0
   35.7630   11.6170    4.3630 O   0  0  0  0  0  0  0  0  0  0  0  0
   33.6960   11.5950    5.3080 N   0  0  0  0  0  0  0  0  0  0  0  0
   32.7990   10.4936    7.2427 C   0  0  0  0  0  0  0  0  0  0  0  0
   33.3470   10.2740    7.4930 C   0  0  0  0  0  0  0  0  0  0  0  0
   32.8900   11.5720    7.6690 C   0  0  0  0  0  0  0  0  0  0  0  0
   33.3940   12.4720    6.7660 O   0  0  0  0  0  0  0  0  0  0  0  0
   32.5070   13.2300    6.0470 C   0  0  0  0  0  0  0  0  0  0  0  0
   32.8430   14.5690    6.5820 C   0  0  0  0  0  0  0  0  0  0  0  0
   32.2450   15.0040    7.5510 O   0  0  0  0  0  0  0  0  0  0  0  0
   33.9260   15.1770    6.0590 N   0  0  0  0  0  0  0  0  0  0  0  0
   34.5050   15.1130    4.7140 C   0  0  0  0  0  0  0  0  0  0  0  0
   35.9790   14.7950    4.8070 C   0  0  0  0  0  0  0  0  0  0  0  0
   36.6530   15.7410    5.6230 O   0  0  0  0  0  0  0  0  0  0  0  0
   36.2000   15.5640    6.9400 C   0  0  0  0  0  0  0  0  0  0  0  0
   34.7260   15.9040    7.0650 C   0  0  0  0  0  0  0  0  0  0  0  0
   31.8380   11.8440    8.5230 N   0  0  0  0  0  0  0  0  0  0  0  0
   31.1650   10.7950    9.1290 C   0  0  0  0  0  0  0  0  0  0  0  0
   31.5630    9.4800    8.9430 C   0  0  0  0  0  0  0  0  0  0  0  0
   30.8480    8.3410    9.6370 C   0  0  0  0  0  0  0  0  0  0  0  0
   35.3679    9.2053    3.6563 H   0  0  0  0  0  0  0  0  0  0  0  0
   35.1935    8.9381    4.6142 H   0  0  0  0  0  0  0  0  0  0  0  0
   34.6025    9.5764    3.0551 H   0  0  0  0  0  0  0  0  0  0  0  0
   33.6256   12.6068    5.2516 H   0  0  0  0  0  0  0  0  0  0  0  0
   34.2721    9.9896    7.9770 H   0  0  0  0  0  0  0  0  0  0  0  0
   31.5364   12.9966    6.3895 H   0  0  0  0  0  0  0  0  0  0  0  0
   32.6216   13.1356    5.0167 H   0  0  0  0  0  0  0  0  0  0  0  0
   34.3440   16.0606    4.2006 H   0  0  0  0  0  0  0  0  0  0  0  0
   33.9708   14.3207    4.1847 H   0  0  0  0  0  0  0  0  0  0  0  0
   36.4424   14.8108    3.8206 H   0  0  0  0  0  0  0  0  0  0  0  0
   36.1335   13.8090    5.2407 H   0  0  0  0  0  0  0  0  0  0  0  0
   36.3702   14.5251    7.2209 H   0  0  0  0  0  0  0  0  0  0  0  0
   36.7919   16.1983    7.5961 H   0  0  0  0  0  0  0  0  0  0  0  0
   34.5560   16.9717    6.8737 H   0  0  0  0  0  0  0  0  0  0  0  0
   34.3599   15.6785    8.0733 H   0  0  0  0  0  0  0  0  0  0  0  0
   30.3421   11.0876    9.7300 H   0  0  0  0  0  0  0  0  0  0  0  0
   30.4569    7.6386    8.8973 H   0  0  0  0  0  0  0  0  0  0  0  0
   31.5237    7.7891   10.2953 H   0  0  0  0  0  0  0  0  0  0  0  0
   30.0311    8.7300   10.2492 H   0  0  0  0  0  0  0  0  0  0  0  0
  1  2  1  0
  2  3  2  0
  2  4  1  0
  4  5  1  0
  5  6  4  0
  6  7  4  0
  7  8  1  0
  8  9  1  0
  9 10  1  0
 10 11  2  0
 10 12  1  0
 12 13  1  0
 13 14  1  0
 14 15  1  0
 15 16  1  0
 16 17  1  0
  7 18  4  0
 18 19  4  0
 19 20  4  0
 20 21  1  0
 20  5  4  0
 17 12  1  0
  1 22  1  0
  1 23  1  0
  1 24  1  0
  4 25  1  0
  6 26  1  0
  9 27  1  0
  9 28  1  0
 13 29  1  0
 13 30  1  0
 14 31  1  0
 14 32  1  0
 16 33  1  0
 16 34  1  0
 17 35  1  0
 17 36  1  0
 19 37  1  0
 21 38  1  0
 21 39  1  0
 21 40  1  0
M  END
$$$$
