LIG
     RDKit          3D

 48 49  0  0  0  0  0  0  0  0999 V2000
   30.4273    8.5827    8.9971 C   0  0  0  0  0  0  0  0  0  0  0  0
   31.1327    9.4643    8.0120 C   0  0  0  0  0  0  0  0  0  0  0  0
   32.1162    8.9063    7.1966 C   0  0  0  0  0  0  0  0  0  0  0  0
   32.8305    9.6811    6.2890 C   0  0  0  0  0  0  0  0  0  0  0  0
   32.5281   11.0250    6.1536 C   0  0  0  0  0  0  0  0  0  0  0  0
   33.2408   11.6929    5.2002 O   0  0  0  0  0  0  0  0  0  0  0  0
   32.8535   13.0340    4.9199 C   0  0  0  0  0  0  0  0  0  0  0  0
   33.4869   13.9328    5.9535 C   0  0  0  0  0  0  0  0  0  0  0  0
   33.0678   13.9168    7.1111 O   0  0  0  0  0  0  0  0  0  0  0  0
   34.5640   14.7147    5.6090 N   0  0  0  0  0  0  0  0  0  0  0  0
   35.4978   14.9266    6.7090 C   0  0  0  0  0  0  0  0  0  0  0  0
   36.5376   13.8073    6.6159 C   0  0  0  0  0  0  0  0  0  0  0  0
   37.2830   13.9555    5.3847 O   0  0  0  0  0  0  0  0  0  0  0  0
   36.3991   13.7802    4.2594 C   0  0  0  0  0  0  0  0  0  0  0  0
   35.2310   14.7715    4.3059 C   0  0  0  0  0  0  0  0  0  0  0  0
   31.5148   11.5736    6.9299 C   0  0  0  0  0  0  0  0  0  0  0  0
   30.8179   10.8112    7.8486 C   0  0  0  0  0  0  0  0  0  0  0  0
   29.7893   11.2934    8.5740 O   0  0  0  0  0  0  0  0  0  0  0  0
   29.4067   12.6551    8.5197 C   0  0  0  0  0  0  0  0  0  0  0  0
   30.2528   13.6506    9.3372 C   0  0  0  0  0  0  0  0  0  0  0  0
   31.4765   13.5564    9.4446 O   0  0  0  0  0  0  0  0  0  0  0  0
   29.5701   14.6716    9.9704 N   0  0  0  0  0  0  0  0  0  0  0  0
   28.2203   15.0663    9.6060 C   0  0  0  0  0  0  0  0  0  0  0  0
   30.2514   15.3618   11.0576 C   0  0  0  0  0  0  0  0  0  0  0  0
   29.6445    8.0061    8.4976 H   0  0  0  0  0  0  0  0  0  0  0  0
   29.9807    9.1506    9.8120 H   0  0  0  0  0  0  0  0  0  0  0  0
   31.1389    7.9018    9.4664 H   0  0  0  0  0  0  0  0  0  0  0  0
   32.3393    7.8527    7.2939 H   0  0  0  0  0  0  0  0  0  0  0  0
   33.6085    9.2239    5.6852 H   0  0  0  0  0  0  0  0  0  0  0  0
   31.7695   13.1878    4.8832 H   0  0  0  0  0  0  0  0  0  0  0  0
   33.1946   13.2465    3.9087 H   0  0  0  0  0  0  0  0  0  0  0  0
   35.9651   15.8933    6.5474 H   0  0  0  0  0  0  0  0  0  0  0  0
   35.0138   14.9239    7.6892 H   0  0  0  0  0  0  0  0  0  0  0  0
   37.2378   13.8128    7.4537 H   0  0  0  0  0  0  0  0  0  0  0  0
   36.0589   12.8266    6.5983 H   0  0  0  0  0  0  0  0  0  0  0  0
   36.0384   12.7448    4.2550 H   0  0  0  0  0  0  0  0  0  0  0  0
   36.9860   13.9326    3.3484 H   0  0  0  0  0  0  0  0  0  0  0  0
   35.6360   15.7796    4.1868 H   0  0  0  0  0  0  0  0  0  0  0  0
   34.5346   14.6130    3.4818 H   0  0  0  0  0  0  0  0  0  0  0  0
   31.2451   12.6114    6.8292 H   0  0  0  0  0  0  0  0  0  0  0  0
   28.3998   12.6402    8.9362 H   0  0  0  0  0  0  0  0  0  0  0  0
   29.2960   13.0156    7.4906 H   0  0  0  0  0  0  0  0  0  0  0  0
   27.5887   14.9915   10.4871 H   0  0  0  0  0  0  0  0  0  0  0  0
   27.7873   14.4631    8.8098 H   0  0  0  0  0  0  0  0  0  0  0  0
   28.2410   16.0678    9.1783 H   0  0  0  0  0  0  0  0  0  0  0  0
   29.5544   15.5011   11.8871 H   0  0  0  0  0  0  0  0  0  0  0  0
   31.0984   14.7816   11.4251 H   0  0  0  0  0  0  0  0  0  0  0  0
   30.6435   16.3143   10.6986 H   0  0  0  0  0  0  0  0  0  0  0  0
  1  2  1  0
  2  3  2  0
  3  4  1  0
  4  5  2  0
  5  6  1  0
  6  7  1  0
  7  8  1  0
  8  9  2  0
  8 10  1  0
 10 11  1  0
 11 12  1  0
 12 13  1  0
 13 14  1  0
 14 15  1  0
  5 16  1  0
 16 17  2  0
 17 18  1  0
 18 19  1  0
 19 20  1  0
 20 21  2  0
 20 22  1  0
 22 23  1  0
 22 24  1  0
 17  2  1  0
 15 10  1  0
  1 25  1  0
  1 26  1  0
  1 27  1  0
  3 28  1  0
  4 29  1  0
  7 30  1  0
  7 31  1  0
 11 32  1  0
 11 33  1  0
 12 34  1  0
 12 35  1  0
 14 36  1  0
 14 37  1  0
 15 38  1  0
 15 39  1  0
 16 40  1  0
 19 41  1  0
 19 42  1  0
 23 43  1  0
 23 44  1  0
 23 45  1  0
 24 46  1  0
 24 47  1  0
 24 48  1  0
M  END
