LIG
     RDKit          3D

 38 39  0  0  0  0  0  0  0  0999 V2000
   34.4872   10.3793    4.9596 C   0  0  0  0  0  0  0  0  0  0  0  0
   33.3497   10.4446    5.9329 C   0  0  0  0  0  0  0  0  0  0  0  0
   32.7063    9.2644    6.3033 C   0  0  0  0  0  0  0  0  0  0  0  0
   31.6567    9.2571    7.2154 C   0  0  0  0  0  0  0  0  0  0  0  0
   31.1692   10.4561    7.7064 C   0  0  0  0  0  0  0  0  0  0  0  0
   31.7943   11.6537    7.3544 C   0  0  0  0  0  0  0  0  0  0  0  0
   31.3640   12.9109    7.7017 O   0  0  0  0  0  0  0  0  0  0  0  0
   30.0670   12.9719    8.2085 C   0  0  0  0  0  0  0  0  0  0  0  0
   29.0127   12.8175    7.1076 C   0  0  0  0  0  0  0  0  0  0  0  0
   28.1675   14.0556    7.2049 C   0  0  0  0  0  0  0  0  0  0  0  0
   28.4029   14.5275    8.5333 N   0  0  0  0  0  0  0  0  0  0  0  0
   27.7798   15.7023    9.0008 C   0  0  0  0  0  0  0  0  0  0  0  0
   29.7337   14.2853    8.8785 C   0  0  0  0  0  0  0  0  0  0  0  0
   30.4400   14.9924    9.5814 O   0  0  0  0  0  0  0  0  0  0  0  0
   32.9468   11.6266    6.5558 C   0  0  0  0  0  0  0  0  0  0  0  0
   33.7501   12.7769    6.4553 N   0  0  0  0  0  0  0  0  0  0  0  0
   34.2323   13.3931    7.6108 C   0  0  0  0  0  0  0  0  0  0  0  0
   33.9471   13.0643    8.7665 O   0  0  0  0  0  0  0  0  0  0  0  0
   35.1823   14.5452    7.3546 C   0  0  0  0  0  0  0  0  0  0  0  0
   35.7107   14.6773    5.6201 S   0  0  0  0  0  0  0  0  0  0  0  0
   34.2428   10.9625    4.0656 H   0  0  0  0  0  0  0  0  0  0  0  0
   34.6880    9.3522    4.6364 H   0  0  0  0  0  0  0  0  0  0  0  0
   35.4086   10.7714    5.3972 H   0  0  0  0  0  0  0  0  0  0  0  0
   33.0700    8.3237    5.9121 H   0  0  0  0  0  0  0  0  0  0  0  0
   31.2074    8.3158    7.5267 H   0  0  0  0  0  0  0  0  0  0  0  0
   30.3206   10.3941    8.3768 H   0  0  0  0  0  0  0  0  0  0  0  0
   29.9072   12.2351    8.9872 H   0  0  0  0  0  0  0  0  0  0  0  0
   28.3996   11.9318    7.3036 H   0  0  0  0  0  0  0  0  0  0  0  0
   29.4332   12.7031    6.1034 H   0  0  0  0  0  0  0  0  0  0  0  0
   28.5113   14.8138    6.4939 H   0  0  0  0  0  0  0  0  0  0  0  0
   27.1097   13.8436    7.0429 H   0  0  0  0  0  0  0  0  0  0  0  0
   27.8084   15.6124   10.0811 H   0  0  0  0  0  0  0  0  0  0  0  0
   26.7394   15.6951    8.6971 H   0  0  0  0  0  0  0  0  0  0  0  0
   28.3172   16.5747    8.6270 H   0  0  0  0  0  0  0  0  0  0  0  0
   34.4341   12.8121    5.7057 H   0  0  0  0  0  0  0  0  0  0  0  0
   34.6755   15.4626    7.6437 H   0  0  0  0  0  0  0  0  0  0  0  0
   36.0664   14.4052    7.9816 H   0  0  0  0  0  0  0  0  0  0  0  0
   35.6960   16.0254    5.5630 H   0  0  0  0  0  0  0  0  0  0  0  0
  1  2  1  0
  2  3  2  0
  3  4  1  0
  4  5  2  0
  5  6  1  0
  6  7  1  0
  7  8  1  0
  8  9  1  0
  9 10  1  0
 10 11  1  0
 11 12  1  0
 11 13  1  0
 13 14  2  0
  6 15  2  0
 15 16  1  0
 16 17  1  0
 17 18  2  0
 17 19  1  0
 19 20  1  0
 15  2  1  0
 13  8  1  0
  1 21  1  0
  1 22  1  0
  1 23  1  0
  3 24  1  0
  4 25  1  0
  5 26  1  0
  8 27  1  0
  9 28  1  0
  9 29  1  0
 10 30  1  0
 10 31  1  0
 12 32  1  0
 12 33  1  0
 12 34  1  0
 16 35  1  0
 19 36  1  0
 19 37  1  0
 20 38  1  0
M  END
