LIG
     RDKit          3D

 42 43  0  0  0  0  0  0  0  0999 V2000
   30.6138   11.2784    8.4007 C   0  0  0  0  0  0  0  0  0  0  0  0
   31.5555   12.1698    7.6552 C   0  0  0  0  0  0  0  0  0  0  0  0
   32.6944   12.7405    8.2028 C   0  0  0  0  0  0  0  0  0  0  0  0
   33.7069   13.2101    7.3807 C   0  0  0  0  0  0  0  0  0  0  0  0
   33.5144   13.2367    6.0138 C   0  0  0  0  0  0  0  0  0  0  0  0
   34.6333   13.4768    5.2864 O   0  0  0  0  0  0  0  0  0  0  0  0
   34.5217   13.2917    3.8873 C   0  0  0  0  0  0  0  0  0  0  0  0
   34.2555   14.6408    3.2420 C   0  0  0  0  0  0  0  0  0  0  0  0
   33.1079   14.9756    2.9378 O   0  0  0  0  0  0  0  0  0  0  0  0
   35.3781   15.4350    2.9963 N   0  0  0  0  0  0  0  0  0  0  0  0
   36.5318   15.3824    3.9103 C   0  0  0  0  0  0  0  0  0  0  0  0
   37.7315   16.1785    3.4005 C   0  0  0  0  0  0  0  0  0  0  0  0
   37.3682   17.5080    3.0261 O   0  0  0  0  0  0  0  0  0  0  0  0
   36.3886   17.4727    1.9818 C   0  0  0  0  0  0  0  0  0  0  0  0
   35.1136   16.7476    2.4105 C   0  0  0  0  0  0  0  0  0  0  0  0
   32.2300   13.0598    5.5243 C   0  0  0  0  0  0  0  0  0  0  0  0
   31.2433   12.5690    6.3681 C   0  0  0  0  0  0  0  0  0  0  0  0
   29.8777   12.5689    6.0495 N   0  0  0  0  0  0  0  0  0  0  0  0
   29.2862   13.6206    5.3761 C   0  0  0  0  0  0  0  0  0  0  0  0
   29.8181   14.3596    4.5575 O   0  0  0  0  0  0  0  0  0  0  0  0
   27.8683   13.7977    5.8288 C   0  0  0  0  0  0  0  0  0  0  0  0
   27.8764   14.3815    7.1737 C   0  0  0  0  0  0  0  0  0  0  0  0
   27.8371   14.7584    8.2713 N   0  0  0  0  0  0  0  0  0  0  0  0
   30.1291   10.5692    7.7227 H   0  0  0  0  0  0  0  0  0  0  0  0
   31.1203   10.6218    9.0968 H   0  0  0  0  0  0  0  0  0  0  0  0
   29.8446   11.8862    8.8719 H   0  0  0  0  0  0  0  0  0  0  0  0
   32.8640   12.8032    9.2645 H   0  0  0  0  0  0  0  0  0  0  0  0
   34.6636   13.5115    7.8023 H   0  0  0  0  0  0  0  0  0  0  0  0
   35.4651   12.8815    3.5116 H   0  0  0  0  0  0  0  0  0  0  0  0
   33.7706   12.5563    3.5761 H   0  0  0  0  0  0  0  0  0  0  0  0
   36.2056   15.7603    4.8815 H   0  0  0  0  0  0  0  0  0  0  0  0
   36.8504   14.3486    4.0648 H   0  0  0  0  0  0  0  0  0  0  0  0
   38.1854   15.6799    2.5352 H   0  0  0  0  0  0  0  0  0  0  0  0
   38.4991   16.2414    4.1774 H   0  0  0  0  0  0  0  0  0  0  0  0
   36.8303   16.9908    1.1010 H   0  0  0  0  0  0  0  0  0  0  0  0
   36.1542   18.5058    1.7061 H   0  0  0  0  0  0  0  0  0  0  0  0
   34.4515   16.6248    1.5451 H   0  0  0  0  0  0  0  0  0  0  0  0
   34.5636   17.3434    3.1418 H   0  0  0  0  0  0  0  0  0  0  0  0
   31.9812   13.2861    4.4940 H   0  0  0  0  0  0  0  0  0  0  0  0
   29.2857   12.1373    6.7478 H   0  0  0  0  0  0  0  0  0  0  0  0
   27.3439   14.3820    5.0752 H   0  0  0  0  0  0  0  0  0  0  0  0
   27.3623   12.8257    5.8536 H   0  0  0  0  0  0  0  0  0  0  0  0
  1  2  1  0
  2  3  2  0
  3  4  1  0
  4  5  2  0
  5  6  1  0
  6  7  1  0
  7  8  1  0
  8  9  2  0
  8 10  1  0
 10 11  1  0
 11 12  1  0
 12 13  1  0
 13 14  1  0
 14 15  1  0
  5 16  1  0
 16 17  2  0
 17 18  1  0
 18 19  1  0
 19 20  2  0
 19 21  1  0
 21 22  1  0
 22 23  3  0
 17  2  1  0
 15 10  1  0
  1 24  1  0
  1 25  1  0
  1 26  1  0
  3 27  1  0
  4 28  1  0
  7 29  1  0
  7 30  1  0
 11 31  1  0
 11 32  1  0
 12 33  1  0
 12 34  1  0
 14 35  1  0
 14 36  1  0
 15 37  1  0
 15 38  1  0
 16 39  1  0
 18 40  1  0
 21 41  1  0
 21 42  1  0
M  END
