LIG
     RDKit          3D

 30 30  0  0  0  0  0  0  0  0999 V2000
    3.7300    1.5978    0.5553 C   0  0  0  0  0  0  0  0  0  0  0  0
    3.1299    0.2137    0.5950 C   0  0  0  0  0  0  0  0  0  0  0  0
    3.8129   -0.7542    0.9104 O   0  0  0  0  0  0  0  0  0  0  0  0
    1.7923    0.2265    0.2518 N   0  0  0  0  0  0  0  0  0  0  0  0
    0.8731   -0.8405    0.1581 C   0  0  0  0  0  0  0  0  0  0  0  0
    1.3044   -2.1532    0.4138 C   0  0  0  0  0  0  0  0  0  0  0  0
    0.4393   -3.2398    0.3297 C   0  0  0  0  0  0  0  0  0  0  0  0
   -0.8855   -3.0376   -0.0157 C   0  0  0  0  0  0  0  0  0  0  0  0
   -1.3638   -1.7443   -0.2808 C   0  0  0  0  0  0  0  0  0  0  0  0
   -2.8237   -1.6239   -0.6512 C   0  0  0  0  0  0  0  0  0  0  0  0
   -0.4888   -0.6183   -0.1961 C   0  0  0  0  0  0  0  0  0  0  0  0
   -1.0996    0.6383   -0.4802 N   0  0  0  0  0  0  0  0  0  0  0  0
   -0.6343    1.9354   -0.5060 C   0  0  0  0  0  0  0  0  0  0  0  0
    0.5083    2.3239   -0.2919 O   0  0  0  0  0  0  0  0  0  0  0  0
   -1.7481    2.9208   -0.8818 C   0  0  0  0  0  0  0  0  0  0  0  0
   -3.0427    2.4075   -0.5796 O   0  0  0  0  0  0  0  0  0  0  0  0
    3.2442    2.2342    1.3001 H   0  0  0  0  0  0  0  0  0  0  0  0
    4.7985    1.5419    0.7825 H   0  0  0  0  0  0  0  0  0  0  0  0
    3.6080    2.0303   -0.4418 H   0  0  0  0  0  0  0  0  0  0  0  0
    1.4152    1.1460    0.0385 H   0  0  0  0  0  0  0  0  0  0  0  0
    2.3323   -2.3726    0.6846 H   0  0  0  0  0  0  0  0  0  0  0  0
    0.8084   -4.2416    0.5336 H   0  0  0  0  0  0  0  0  0  0  0  0
   -1.5468   -3.8995   -0.0782 H   0  0  0  0  0  0  0  0  0  0  0  0
   -3.3208   -2.6001   -0.6693 H   0  0  0  0  0  0  0  0  0  0  0  0
   -3.3528   -1.0062    0.0817 H   0  0  0  0  0  0  0  0  0  0  0  0
   -2.9285   -1.1910   -1.6514 H   0  0  0  0  0  0  0  0  0  0  0  0
   -2.0896    0.6050   -0.7090 H   0  0  0  0  0  0  0  0  0  0  0  0
   -1.6927    3.1108   -1.9574 H   0  0  0  0  0  0  0  0  0  0  0  0
   -1.6052    3.8594   -0.3381 H   0  0  0  0  0  0  0  0  0  0  0  0
   -3.1740    2.5314    0.3791 H   0  0  0  0  0  0  0  0  0  0  0  0
  1  2  1  0
  2  3  2  0
  2  4  1  0
  4  5  1  0
  5  6  2  0
  6  7  1  0
  7  8  2  0
  8  9  1  0
  9 10  1  0
  9 11  2  0
 11 12  1  0
 12 13  1  0
 13 14  2  0
 13 15  1  0
 15 16  1  0
 11  5  1  0
  1 17  1  0
  1 18  1  0
  1 19  1  0
  4 20  1  0
  6 21  1  0
  7 22  1  0
  8 23  1  0
 10 24  1  0
 10 25  1  0
 10 26  1  0
 12 27  1  0
 15 28  1  0
 15 29  1  0
 16 30  1  0
M  END
