LIG
     RDKit          3D

 41 42  0  0  0  0  0  0  0  0999 V2000
   34.1812   10.2871    3.0543 C   0  0  0  0  0  0  0  0  0  0  0  0
   34.9921   10.0473    4.2962 C   0  0  0  0  0  0  0  0  0  0  0  0
   36.1606   10.4143    4.3692 O   0  0  0  0  0  0  0  0  0  0  0  0
   34.3534    9.3026    5.2645 N   0  0  0  0  0  0  0  0  0  0  0  0
   33.2239    9.7454    5.9809 C   0  0  0  0  0  0  0  0  0  0  0  0
   32.5350    8.9292    6.8604 C   0  0  0  0  0  0  0  0  0  0  0  0
   31.5093    9.4297    7.6632 C   0  0  0  0  0  0  0  0  0  0  0  0
   30.8624    8.5387    8.6664 C   0  0  0  0  0  0  0  0  0  0  0  0
   31.0990   10.7487    7.4977 C   0  0  0  0  0  0  0  0  0  0  0  0
   31.7516   11.5493    6.5805 C   0  0  0  0  0  0  0  0  0  0  0  0
   31.2620   12.8026    6.3486 O   0  0  0  0  0  0  0  0  0  0  0  0
   32.1359   13.6111    5.5671 C   0  0  0  0  0  0  0  0  0  0  0  0
   33.3322   13.9497    6.4539 C   0  0  0  0  0  0  0  0  0  0  0  0
   33.2224   13.9250    7.6852 O   0  0  0  0  0  0  0  0  0  0  0  0
   34.5309   14.2116    5.8356 N   0  0  0  0  0  0  0  0  0  0  0  0
   35.6809   14.4347    6.7027 C   0  0  0  0  0  0  0  0  0  0  0  0
   36.9050   13.7938    6.0630 C   0  0  0  0  0  0  0  0  0  0  0  0
   37.1774   14.4485    4.8143 O   0  0  0  0  0  0  0  0  0  0  0  0
   36.1061   14.1830    3.8984 C   0  0  0  0  0  0  0  0  0  0  0  0
   34.7339   14.6108    4.4398 C   0  0  0  0  0  0  0  0  0  0  0  0
   32.8471   11.0545    5.8946 C   0  0  0  0  0  0  0  0  0  0  0  0
   33.4169   11.0509    3.1981 H   0  0  0  0  0  0  0  0  0  0  0  0
   33.7232    9.3512    2.7236 H   0  0  0  0  0  0  0  0  0  0  0  0
   34.8487   10.6257    2.2551 H   0  0  0  0  0  0  0  0  0  0  0  0
   34.9614    8.7115    5.8221 H   0  0  0  0  0  0  0  0  0  0  0  0
   32.8182    7.8963    6.9808 H   0  0  0  0  0  0  0  0  0  0  0  0
   30.1083    7.9051    8.1984 H   0  0  0  0  0  0  0  0  0  0  0  0
   30.3644    9.1237    9.4456 H   0  0  0  0  0  0  0  0  0  0  0  0
   31.6073    7.9220    9.1680 H   0  0  0  0  0  0  0  0  0  0  0  0
   30.2656   11.1475    8.0747 H   0  0  0  0  0  0  0  0  0  0  0  0
   32.3829   13.1339    4.6149 H   0  0  0  0  0  0  0  0  0  0  0  0
   31.6069   14.5019    5.2487 H   0  0  0  0  0  0  0  0  0  0  0  0
   35.5277   14.0145    7.7011 H   0  0  0  0  0  0  0  0  0  0  0  0
   35.7933   15.5171    6.7916 H   0  0  0  0  0  0  0  0  0  0  0  0
   36.7463   12.7234    5.8836 H   0  0  0  0  0  0  0  0  0  0  0  0
   37.7927   13.8691    6.6931 H   0  0  0  0  0  0  0  0  0  0  0  0
   36.1049   13.1114    3.6682 H   0  0  0  0  0  0  0  0  0  0  0  0
   36.3201   14.7135    2.9651 H   0  0  0  0  0  0  0  0  0  0  0  0
   33.9433   14.2262    3.7931 H   0  0  0  0  0  0  0  0  0  0  0  0
   34.6614   15.6957    4.4063 H   0  0  0  0  0  0  0  0  0  0  0  0
   33.4682   11.6874    5.2837 H   0  0  0  0  0  0  0  0  0  0  0  0
  1  2  1  0
  2  3  2  0
  2  4  1  0
  4  5  1  0
  5  6  2  0
  6  7  1  0
  7  8  1  0
  7  9  2  0
  9 10  1  0
 10 11  1  0
 11 12  1  0
 12 13  1  0
 13 14  2  0
 13 15  1  0
 15 16  1  0
 16 17  1  0
 17 18  1  0
 18 19  1  0
 19 20  1  0
 10 21  2  0
 21  5  1  0
 20 15  1  0
  1 22  1  0
  1 23  1  0
  1 24  1  0
  4 25  1  0
  6 26  1  0
  8 27  1  0
  8 28  1  0
  8 29  1  0
  9 30  1  0
 12 31  1  0
 12 32  1  0
 16 33  1  0
 16 34  1  0
 17 35  1  0
 17 36  1  0
 19 37  1  0
 19 38  1  0
 20 39  1  0
 20 40  1  0
 21 41  1  0
M  END
