LIG
     RDKit          3D

 38 39  0  0  0  0  0  0  0  0999 V2000
   34.4770    9.6170    4.1420 C   0  0  0  0  0  0  0  0  0  0  0  0
   34.7220   11.0190    4.6240 C   0  0  0  0  0  0  0  0  0  0  0  0
   35.7630   11.6170    4.3630 O   0  0  0  0  0  0  0  0  0  0  0  0
   33.6960   11.5950    5.3080 N   0  0  0  0  0  0  0  0  0  0  0  0
   33.0230   11.0028    6.9512 C   0  0  0  0  0  0  0  0  0  0  0  0
   31.5630    9.4800    8.9430 C   0  0  0  0  0  0  0  0  0  0  0  0
   32.6580    9.2460    8.1260 C   0  0  0  0  0  0  0  0  0  0  0  0
   33.3470   10.2740    7.4930 C   0  0  0  0  0  0  0  0  0  0  0  0
   32.8900   11.5720    7.6690 C   0  0  0  0  0  0  0  0  0  0  0  0
   33.3940   12.4720    6.7660 O   0  0  0  0  0  0  0  0  0  0  0  0
   32.5070   13.2300    6.0470 C   0  0  0  0  0  0  0  0  0  0  0  0
   32.8430   14.5690    6.5820 C   0  0  0  0  0  0  0  0  0  0  0  0
   32.2450   15.0040    7.5510 O   0  0  0  0  0  0  0  0  0  0  0  0
   33.9260   15.1770    6.0590 N   0  0  0  0  0  0  0  0  0  0  0  0
   34.7260   15.9040    7.0650 C   0  0  0  0  0  0  0  0  0  0  0  0
   36.2000   15.5640    6.9400 C   0  0  0  0  0  0  0  0  0  0  0  0
   36.6530   15.7410    5.6230 O   0  0  0  0  0  0  0  0  0  0  0  0
   35.9790   14.7950    4.8070 C   0  0  0  0  0  0  0  0  0  0  0  0
   34.5050   15.1130    4.7140 C   0  0  0  0  0  0  0  0  0  0  0  0
   31.8380   11.8440    8.5230 C   0  0  0  0  0  0  0  0  0  0  0  0
   34.0026    9.0334    4.9377 H   0  0  0  0  0  0  0  0  0  0  0  0
   33.4050    9.4007    4.1767 H   0  0  0  0  0  0  0  0  0  0  0  0
   33.8079    9.6104    3.2754 H   0  0  0  0  0  0  0  0  0  0  0  0
   33.1356   12.2855    4.8143 H   0  0  0  0  0  0  0  0  0  0  0  0
   30.8106    8.6987    9.0295 H   0  0  0  0  0  0  0  0  0  0  0  0
   32.9861    8.2054    7.9638 H   0  0  0  0  0  0  0  0  0  0  0  0
   34.1887   10.0287    6.8726 H   0  0  0  0  0  0  0  0  0  0  0  0
   32.8193   13.1986    5.0432 H   0  0  0  0  0  0  0  0  0  0  0  0
   31.5122   12.9747    6.2011 H   0  0  0  0  0  0  0  0  0  0  0  0
   34.5577   16.9700    6.8745 H   0  0  0  0  0  0  0  0  0  0  0  0
   34.3590   15.6678    8.0665 H   0  0  0  0  0  0  0  0  0  0  0  0
   36.7921   16.2036    7.5952 H   0  0  0  0  0  0  0  0  0  0  0  0
   36.3784   14.5265    7.2311 H   0  0  0  0  0  0  0  0  0  0  0  0
   36.4383   14.8226    3.8215 H   0  0  0  0  0  0  0  0  0  0  0  0
   36.1354   13.8098    5.2358 H   0  0  0  0  0  0  0  0  0  0  0  0
   34.3430   16.0522    4.1808 H   0  0  0  0  0  0  0  0  0  0  0  0
   33.9693   14.3178    4.1865 H   0  0  0  0  0  0  0  0  0  0  0  0
   30.8201   11.7742    8.1361 H   0  0  0  0  0  0  0  0  0  0  0  0
  1  2  1  0
  2  3  2  0
  2  4  1  0
  4  5  1  0
  5  6  4  0
  6  7  4  0
  7  8  4  0
  8  9  4  0
  9 10  1  0
 10 11  1  0
 11 12  1  0
 12 13  2  0
 12 14  1  0
 14 15  1  0
 15 16  1  0
 16 17  1  0
 17 18  1  0
 18 19  1  0
  9 20  4  0
 20  5  4  0
 19 14  1  0
  1 21  1  0
  1 22  1  0
  1 23  1  0
  4 24  1  0
  6 25  1  0
  7 26  1  0
  8 27  1  0
 11 28  1  0
 11 29  1  0
 15 30  1  0
 15 31  1  0
 16 32  1  0
 16 33  1  0
 18 34  1  0
 18 35  1  0
 19 36  1  0
 19 37  1  0
 20 38  1  0
M  END
