LIG
     RDKit          3D

 45 46  0  0  0  0  0  0  0  0999 V2000
   -4.2897   -1.8716   -1.4982 C   0  0  0  0  0  0  0  0  0  0  0  0
   -2.8381   -1.4967   -1.6418 C   0  0  0  0  0  0  0  0  0  0  0  0
   -2.1830   -1.8291   -2.8415 C   0  0  0  0  0  0  0  0  0  0  0  0
   -0.8339   -1.5126   -3.0515 C   0  0  0  0  0  0  0  0  0  0  0  0
   -0.1679   -1.8823   -4.3489 C   0  0  0  0  0  0  0  0  0  0  0  0
   -0.1249   -0.8448   -2.0453 C   0  0  0  0  0  0  0  0  0  0  0  0
    1.1901   -0.5635   -2.3256 O   0  0  0  0  0  0  0  0  0  0  0  0
    1.8695    0.3395   -1.4621 C   0  0  0  0  0  0  0  0  0  0  0  0
    2.4537   -0.2984   -0.1881 C   0  0  0  0  0  0  0  0  0  0  0  0
    2.6093   -1.5194   -0.0969 O   0  0  0  0  0  0  0  0  0  0  0  0
    2.8245    0.5575    0.8448 N   0  0  0  0  0  0  0  0  0  0  0  0
    2.6362    2.0125    0.8530 C   0  0  0  0  0  0  0  0  0  0  0  0
    2.8150    2.6010    2.2570 C   0  0  0  0  0  0  0  0  0  0  0  0
    4.0918    2.2948    2.8302 O   0  0  0  0  0  0  0  0  0  0  0  0
    4.5516    0.9619    2.5562 C   0  0  0  0  0  0  0  0  0  0  0  0
    3.4677    0.0080    2.0398 C   0  0  0  0  0  0  0  0  0  0  0  0
   -0.7699   -0.5268   -0.8429 C   0  0  0  0  0  0  0  0  0  0  0  0
   -2.1202   -0.8313   -0.6283 C   0  0  0  0  0  0  0  0  0  0  0  0
   -2.7795   -0.5133    0.5863 N   0  0  0  0  0  0  0  0  0  0  0  0
   -2.2956    0.2504    1.6412 C   0  0  0  0  0  0  0  0  0  0  0  0
   -1.2344    0.8685    1.6723 O   0  0  0  0  0  0  0  0  0  0  0  0
   -3.2251    0.2741    2.8336 C   0  0  0  0  0  0  0  0  0  0  0  0
   -4.2502    1.3025    2.6568 C   0  0  0  0  0  0  0  0  0  0  0  0
   -5.1015    2.0813    2.5169 N   0  0  0  0  0  0  0  0  0  0  0  0
   -4.6721   -2.3630   -2.4001 H   0  0  0  0  0  0  0  0  0  0  0  0
   -4.8995   -0.9769   -1.3293 H   0  0  0  0  0  0  0  0  0  0  0  0
   -4.4208   -2.5709   -0.6648 H   0  0  0  0  0  0  0  0  0  0  0  0
   -2.7321   -2.3454   -3.6282 H   0  0  0  0  0  0  0  0  0  0  0  0
   -0.8477   -2.4316   -5.0093 H   0  0  0  0  0  0  0  0  0  0  0  0
    0.1562   -0.9821   -4.8799 H   0  0  0  0  0  0  0  0  0  0  0  0
    0.6961   -2.5251   -4.1602 H   0  0  0  0  0  0  0  0  0  0  0  0
    2.7289    0.7219   -2.0272 H   0  0  0  0  0  0  0  0  0  0  0  0
    1.2333    1.2031   -1.2512 H   0  0  0  0  0  0  0  0  0  0  0  0
    3.3871    2.4286    0.1706 H   0  0  0  0  0  0  0  0  0  0  0  0
    1.6390    2.2653    0.4807 H   0  0  0  0  0  0  0  0  0  0  0  0
    2.7179    3.6912    2.2245 H   0  0  0  0  0  0  0  0  0  0  0  0
    2.0389    2.2271    2.9382 H   0  0  0  0  0  0  0  0  0  0  0  0
    5.3556    1.0465    1.8142 H   0  0  0  0  0  0  0  0  0  0  0  0
    4.9950    0.5694    3.4772 H   0  0  0  0  0  0  0  0  0  0  0  0
    2.6794   -0.1219    2.7903 H   0  0  0  0  0  0  0  0  0  0  0  0
    3.9005   -0.9764    1.8339 H   0  0  0  0  0  0  0  0  0  0  0  0
   -0.2041   -0.0606   -0.0494 H   0  0  0  0  0  0  0  0  0  0  0  0
   -3.7359   -0.8366    0.6576 H   0  0  0  0  0  0  0  0  0  0  0  0
   -3.6816   -0.7148    2.9607 H   0  0  0  0  0  0  0  0  0  0  0  0
   -2.6295    0.4663    3.7346 H   0  0  0  0  0  0  0  0  0  0  0  0
  1  2  1  0
  2  3  2  0
  3  4  1  0
  4  5  1  0
  4  6  2  0
  6  7  1  0
  7  8  1  0
  8  9  1  0
  9 10  2  0
  9 11  1  0
 11 12  1  0
 12 13  1  0
 13 14  1  0
 14 15  1  0
 15 16  1  0
  6 17  1  0
 17 18  2  0
 18 19  1  0
 19 20  1  0
 20 21  2  0
 20 22  1  0
 22 23  1  0
 23 24  3  0
 18  2  1  0
 16 11  1  0
  1 25  1  0
  1 26  1  0
  1 27  1  0
  3 28  1  0
  5 29  1  0
  5 30  1  0
  5 31  1  0
  8 32  1  0
  8 33  1  0
 12 34  1  0
 12 35  1  0
 13 36  1  0
 13 37  1  0
 15 38  1  0
 15 39  1  0
 16 40  1  0
 16 41  1  0
 17 42  1  0
 19 43  1  0
 22 44  1  0
 22 45  1  0
M  END
