LIG
     RDKit          3D

 38 39  0  0  0  0  0  0  0  0999 V2000
   29.5899   16.2658    5.4121 N   0  0  0  0  0  0  0  0  0  0  0  0
   30.2338   15.3725    5.7836 C   0  0  0  0  0  0  0  0  0  0  0  0
   31.1083   14.3178    6.2865 C   0  0  0  0  0  0  0  0  0  0  0  0
   30.9480   12.9734    5.6023 C   0  0  0  0  0  0  0  0  0  0  0  0
   30.6926   12.8775    4.4063 O   0  0  0  0  0  0  0  0  0  0  0  0
   31.1472   11.8518    6.4046 N   0  0  0  0  0  0  0  0  0  0  0  0
   31.7933   10.7024    5.9303 C   0  0  0  0  0  0  0  0  0  0  0  0
   31.8089    9.5505    6.6920 C   0  0  0  0  0  0  0  0  0  0  0  0
   33.0594    9.0070    6.9364 C   0  0  0  0  0  0  0  0  0  0  0  0
   34.1926    9.6731    6.6222 N   0  0  0  0  0  0  0  0  0  0  0  0
   34.0259   10.8180    5.9498 C   0  0  0  0  0  0  0  0  0  0  0  0
   34.3726   11.9248    6.7076 O   0  0  0  0  0  0  0  0  0  0  0  0
   34.5003   13.0914    5.9174 C   0  0  0  0  0  0  0  0  0  0  0  0
   34.2346   14.3466    6.7428 C   0  0  0  0  0  0  0  0  0  0  0  0
   33.6668   14.3135    7.8359 O   0  0  0  0  0  0  0  0  0  0  0  0
   34.6018   15.5492    6.1477 N   0  0  0  0  0  0  0  0  0  0  0  0
   34.9438   16.6486    7.0449 C   0  0  0  0  0  0  0  0  0  0  0  0
   36.4702   16.6625    7.2184 C   0  0  0  0  0  0  0  0  0  0  0  0
   37.1343   16.7796    5.9417 O   0  0  0  0  0  0  0  0  0  0  0  0
   36.7806   15.7075    5.0521 C   0  0  0  0  0  0  0  0  0  0  0  0
   35.2645   15.6616    4.8453 C   0  0  0  0  0  0  0  0  0  0  0  0
   32.9078   10.9410    5.1683 C   0  0  0  0  0  0  0  0  0  0  0  0
   32.0915   14.6526    5.9763 H   0  0  0  0  0  0  0  0  0  0  0  0
   31.1206   14.2298    7.3729 H   0  0  0  0  0  0  0  0  0  0  0  0
   31.1259   11.9584    7.4063 H   0  0  0  0  0  0  0  0  0  0  0  0
   30.9164    9.1753    7.1648 H   0  0  0  0  0  0  0  0  0  0  0  0
   33.2110    8.1288    7.5482 H   0  0  0  0  0  0  0  0  0  0  0  0
   35.5352   13.1105    5.5622 H   0  0  0  0  0  0  0  0  0  0  0  0
   33.8312   13.1337    5.0515 H   0  0  0  0  0  0  0  0  0  0  0  0
   34.6044   17.5765    6.5708 H   0  0  0  0  0  0  0  0  0  0  0  0
   34.4487   16.5524    8.0157 H   0  0  0  0  0  0  0  0  0  0  0  0
   36.7705   17.5213    7.8264 H   0  0  0  0  0  0  0  0  0  0  0  0
   36.8254   15.7523    7.7158 H   0  0  0  0  0  0  0  0  0  0  0  0
   37.2854   15.8857    4.0978 H   0  0  0  0  0  0  0  0  0  0  0  0
   37.1652   14.7699    5.4678 H   0  0  0  0  0  0  0  0  0  0  0  0
   34.9203   16.6004    4.3955 H   0  0  0  0  0  0  0  0  0  0  0  0
   34.9810   14.8490    4.1732 H   0  0  0  0  0  0  0  0  0  0  0  0
   32.9562   10.2855    4.2828 H   0  0  0  0  0  0  0  0  0  0  0  0
  1  2  3  0
  2  3  1  0
  3  4  1  0
  4  5  2  0
  4  6  1  0
  6  7  1  0
  7  8  2  0
  8  9  1  0
  9 10  2  0
 10 11  1  0
 11 12  1  0
 12 13  1  0
 13 14  1  0
 14 15  2  0
 14 16  1  0
 16 17  1  0
 17 18  1  0
 18 19  1  0
 19 20  1  0
 20 21  1  0
 11 22  2  0
 22  7  1  0
 21 16  1  0
  3 23  1  0
  3 24  1  0
  6 25  1  0
  8 26  1  0
  9 27  1  0
 13 28  1  0
 13 29  1  0
 17 30  1  0
 17 31  1  0
 18 32  1  0
 18 33  1  0
 20 34  1  0
 20 35  1  0
 21 36  1  0
 21 37  1  0
 22 38  1  0
M  END
