LIG
     RDKit          3D

 42 44  0  0  0  0  0  0  0  0999 V2000
   28.4727   16.3416    8.4487 C   0  0  0  0  0  0  0  0  0  0  0  0
   28.7249   14.9547    8.4299 N   0  0  0  0  0  0  0  0  0  0  0  0
   28.1167   14.1527    7.4044 C   0  0  0  0  0  0  0  0  0  0  0  0
   28.7802   12.8279    7.6045 C   0  0  0  0  0  0  0  0  0  0  0  0
   30.2015   13.2583    7.9259 C   0  0  0  0  0  0  0  0  0  0  0  0
   30.8904   12.2693    8.6289 O   0  0  0  0  0  0  0  0  0  0  0  0
   31.5206   11.4223    7.7822 C   0  0  0  0  0  0  0  0  0  0  0  0
   31.2439   10.0710    7.8734 C   0  0  0  0  0  0  0  0  0  0  0  0
   31.9421    9.2081    7.0474 C   0  0  0  0  0  0  0  0  0  0  0  0
   32.8212    9.7218    6.0898 C   0  0  0  0  0  0  0  0  0  0  0  0
   33.4314    8.8607    5.2736 F   0  0  0  0  0  0  0  0  0  0  0  0
   33.0398   11.0936    5.9566 C   0  0  0  0  0  0  0  0  0  0  0  0
   33.7716   11.6433    4.8825 N   0  0  0  0  0  0  0  0  0  0  0  0
   33.6905   12.9759    4.4779 C   0  0  0  0  0  0  0  0  0  0  0  0
   32.9903   13.8482    4.9971 O   0  0  0  0  0  0  0  0  0  0  0  0
   34.5711   13.2945    3.2691 C   0  0  0  0  0  0  0  0  0  0  0  0
   33.9663   14.4090    2.4260 C   0  0  0  0  0  0  0  0  0  0  0  0
   34.5212   14.1082    1.0602 C   0  0  0  0  0  0  0  0  0  0  0  0
   34.5236   12.5967    1.0473 C   0  0  0  0  0  0  0  0  0  0  0  0
   34.7256   12.1620    2.4007 O   0  0  0  0  0  0  0  0  0  0  0  0
   32.4695   11.9180    6.9024 C   0  0  0  0  0  0  0  0  0  0  0  0
   29.9988   14.4979    8.7624 C   0  0  0  0  0  0  0  0  0  0  0  0
   30.8096   15.0606    9.4841 O   0  0  0  0  0  0  0  0  0  0  0  0
   27.5370   16.4770    8.9848 H   0  0  0  0  0  0  0  0  0  0  0  0
   29.2802   16.8812    8.9113 H   0  0  0  0  0  0  0  0  0  0  0  0
   28.4585   16.6950    7.4211 H   0  0  0  0  0  0  0  0  0  0  0  0
   28.3649   14.5665    6.4205 H   0  0  0  0  0  0  0  0  0  0  0  0
   27.0385   14.1190    7.5324 H   0  0  0  0  0  0  0  0  0  0  0  0
   28.7105   12.1728    6.7332 H   0  0  0  0  0  0  0  0  0  0  0  0
   28.3469   12.3116    8.4607 H   0  0  0  0  0  0  0  0  0  0  0  0
   30.6933   13.6035    7.0075 H   0  0  0  0  0  0  0  0  0  0  0  0
   30.5309    9.6895    8.5983 H   0  0  0  0  0  0  0  0  0  0  0  0
   31.7988    8.1363    7.1349 H   0  0  0  0  0  0  0  0  0  0  0  0
   34.2410   11.0027    4.2438 H   0  0  0  0  0  0  0  0  0  0  0  0
   35.5660   13.5742    3.6345 H   0  0  0  0  0  0  0  0  0  0  0  0
   34.2318   15.4056    2.7911 H   0  0  0  0  0  0  0  0  0  0  0  0
   32.8714   14.3415    2.4015 H   0  0  0  0  0  0  0  0  0  0  0  0
   35.5491   14.4831    0.9881 H   0  0  0  0  0  0  0  0  0  0  0  0
   33.9411   14.5427    0.2421 H   0  0  0  0  0  0  0  0  0  0  0  0
   33.5574   12.2029    0.7141 H   0  0  0  0  0  0  0  0  0  0  0  0
   35.3074   12.1825    0.4071 H   0  0  0  0  0  0  0  0  0  0  0  0
   32.7453   12.9644    6.9738 H   0  0  0  0  0  0  0  0  0  0  0  0
  1  2  1  0
  2  3  1  0
  3  4  1  0
  4  5  1  0
  5  6  1  0
  6  7  1  0
  7  8  2  0
  8  9  1  0
  9 10  2  0
 10 11  1  0
 10 12  1  0
 12 13  1  0
 13 14  1  0
 14 15  2  0
 14 16  1  0
 16 17  1  0
 17 18  1  0
 18 19  1  0
 19 20  1  0
 12 21  2  0
  5 22  1  0
 22 23  2  0
 22  2  1  0
 21  7  1  0
 20 16  1  0
  1 24  1  0
  1 25  1  0
  1 26  1  0
  3 27  1  0
  3 28  1  0
  4 29  1  0
  4 30  1  0
  5 31  1  0
  8 32  1  0
  9 33  1  0
 13 34  1  0
 16 35  1  0
 17 36  1  0
 17 37  1  0
 18 38  1  0
 18 39  1  0
 19 40  1  0
 19 41  1  0
 21 42  1  0
M  END
