LIG
     RDKit          3D

 41 42  0  0  0  0  0  0  0  0999 V2000
   30.3098    8.6079    9.0520 C   0  0  0  0  0  0  0  0  0  0  0  0
   31.0659    9.4751    8.1116 C   0  0  0  0  0  0  0  0  0  0  0  0
   32.0508    8.9006    7.3172 C   0  0  0  0  0  0  0  0  0  0  0  0
   32.8551    9.5564    6.4424 N   0  0  0  0  0  0  0  0  0  0  0  0
   32.6603   10.8723    6.3292 C   0  0  0  0  0  0  0  0  0  0  0  0
   33.4695   11.5123    5.4377 O   0  0  0  0  0  0  0  0  0  0  0  0
   33.0546   12.8195    5.0385 C   0  0  0  0  0  0  0  0  0  0  0  0
   33.5731   13.8427    6.0394 C   0  0  0  0  0  0  0  0  0  0  0  0
   33.1612   13.8600    7.2050 O   0  0  0  0  0  0  0  0  0  0  0  0
   34.5888   14.6865    5.6507 N   0  0  0  0  0  0  0  0  0  0  0  0
   35.5735   14.9032    6.6999 C   0  0  0  0  0  0  0  0  0  0  0  0
   36.6352   13.8101    6.5286 C   0  0  0  0  0  0  0  0  0  0  0  0
   37.3142   14.0146    5.2705 O   0  0  0  0  0  0  0  0  0  0  0  0
   36.3847   13.8368    4.1829 C   0  0  0  0  0  0  0  0  0  0  0  0
   35.1845   14.7835    4.3127 C   0  0  0  0  0  0  0  0  0  0  0  0
   31.6694   11.5015    7.0265 C   0  0  0  0  0  0  0  0  0  0  0  0
   30.8260   10.8116    7.8711 C   0  0  0  0  0  0  0  0  0  0  0  0
   29.7758   11.5594    8.4119 N   0  0  0  0  0  0  0  0  0  0  0  0
   29.1979   12.6126    7.7101 C   0  0  0  0  0  0  0  0  0  0  0  0
   29.3281   12.7953    6.4959 O   0  0  0  0  0  0  0  0  0  0  0  0
   28.3366   13.5035    8.5388 C   0  0  0  0  0  0  0  0  0  0  0  0
   28.5305   14.8956    8.1769 C   0  0  0  0  0  0  0  0  0  0  0  0
   28.6747   16.0125    7.9081 N   0  0  0  0  0  0  0  0  0  0  0  0
   29.8746    9.1782    9.8688 H   0  0  0  0  0  0  0  0  0  0  0  0
   29.5187    8.0679    8.5254 H   0  0  0  0  0  0  0  0  0  0  0  0
   30.9839    7.8916    9.5250 H   0  0  0  0  0  0  0  0  0  0  0  0
   32.2399    7.8367    7.3790 H   0  0  0  0  0  0  0  0  0  0  0  0
   33.4708   12.9611    4.0429 H   0  0  0  0  0  0  0  0  0  0  0  0
   31.9733   12.9290    4.9019 H   0  0  0  0  0  0  0  0  0  0  0  0
   35.1429   14.8678    7.7043 H   0  0  0  0  0  0  0  0  0  0  0  0
   36.0017   15.8868    6.5315 H   0  0  0  0  0  0  0  0  0  0  0  0
   36.1862   12.8140    6.5111 H   0  0  0  0  0  0  0  0  0  0  0  0
   37.3757   13.8084    7.3307 H   0  0  0  0  0  0  0  0  0  0  0  0
   36.0633   12.7890    4.1664 H   0  0  0  0  0  0  0  0  0  0  0  0
   36.9211   14.0350    3.2498 H   0  0  0  0  0  0  0  0  0  0  0  0
   34.4423   14.6157    3.5298 H   0  0  0  0  0  0  0  0  0  0  0  0
   35.5481   15.8052    4.1856 H   0  0  0  0  0  0  0  0  0  0  0  0
   31.5048   12.5582    6.9201 H   0  0  0  0  0  0  0  0  0  0  0  0
   29.3158   11.2347    9.2613 H   0  0  0  0  0  0  0  0  0  0  0  0
   27.3308   13.2048    8.2822 H   0  0  0  0  0  0  0  0  0  0  0  0
   28.4972   13.3593    9.6075 H   0  0  0  0  0  0  0  0  0  0  0  0
  1  2  1  0
  2  3  2  0
  3  4  1  0
  4  5  2  0
  5  6  1  0
  6  7  1  0
  7  8  1  0
  8  9  2  0
  8 10  1  0
 10 11  1  0
 11 12  1  0
 12 13  1  0
 13 14  1  0
 14 15  1  0
  5 16  1  0
 16 17  2  0
 17 18  1  0
 18 19  1  0
 19 20  2  0
 19 21  1  0
 21 22  1  0
 22 23  3  0
 17  2  1  0
 15 10  1  0
  1 24  1  0
  1 25  1  0
  1 26  1  0
  3 27  1  0
  7 28  1  0
  7 29  1  0
 11 30  1  0
 11 31  1  0
 12 32  1  0
 12 33  1  0
 14 34  1  0
 14 35  1  0
 15 36  1  0
 15 37  1  0
 16 38  1  0
 18 39  1  0
 21 40  1  0
 21 41  1  0
M  END
