LIG
     RDKit          3D

 33 33  0  0  0  0  0  0  0  0999 V2000
   30.8434   15.6954   11.3517 C   0  0  0  0  0  0  0  0  0  0  0  0
   29.8280   14.9864   10.5888 N   0  0  0  0  0  0  0  0  0  0  0  0
   28.6126   14.6742   11.2881 C   0  0  0  0  0  0  0  0  0  0  0  0
   30.3115   14.0677    9.6607 C   0  0  0  0  0  0  0  0  0  0  0  0
   31.5283   13.9413    9.5376 O   0  0  0  0  0  0  0  0  0  0  0  0
   29.2957   13.3268    8.7428 C   0  0  0  0  0  0  0  0  0  0  0  0
   29.4799   11.9547    8.4306 O   0  0  0  0  0  0  0  0  0  0  0  0
   30.5740   11.5691    7.7288 C   0  0  0  0  0  0  0  0  0  0  0  0
   30.8093   10.2080    7.5729 C   0  0  0  0  0  0  0  0  0  0  0  0
   31.8262    9.6846    6.8372 N   0  0  0  0  0  0  0  0  0  0  0  0
   32.7303   10.5557    6.3475 C   0  0  0  0  0  0  0  0  0  0  0  0
   32.6395   11.9167    6.5671 C   0  0  0  0  0  0  0  0  0  0  0  0
   33.7090   12.7948    6.3372 N   0  0  0  0  0  0  0  0  0  0  0  0
   34.3005   13.4080    7.4493 C   0  0  0  0  0  0  0  0  0  0  0  0
   34.0416   13.1233    8.6198 O   0  0  0  0  0  0  0  0  0  0  0  0
   35.2815   14.5088    7.1170 C   0  0  0  0  0  0  0  0  0  0  0  0
   36.1921   14.1729    5.5894 S   0  0  0  0  0  0  0  0  0  0  0  0
   31.4962   12.4258    7.1664 C   0  0  0  0  0  0  0  0  0  0  0  0
   31.2184   15.0323   12.1215 H   0  0  0  0  0  0  0  0  0  0  0  0
   30.4291   16.5856   11.8250 H   0  0  0  0  0  0  0  0  0  0  0  0
   31.6763   16.0038   10.7150 H   0  0  0  0  0  0  0  0  0  0  0  0
   28.5905   13.6315   11.5863 H   0  0  0  0  0  0  0  0  0  0  0  0
   27.7646   14.8691   10.6298 H   0  0  0  0  0  0  0  0  0  0  0  0
   28.5431   15.2728   12.1967 H   0  0  0  0  0  0  0  0  0  0  0  0
   29.2165   13.9085    7.8143 H   0  0  0  0  0  0  0  0  0  0  0  0
   28.2983   13.3825    9.1819 H   0  0  0  0  0  0  0  0  0  0  0  0
   30.1436    9.4702    8.0162 H   0  0  0  0  0  0  0  0  0  0  0  0
   33.5851   10.1039    5.8557 H   0  0  0  0  0  0  0  0  0  0  0  0
   34.4137   12.5225    5.6575 H   0  0  0  0  0  0  0  0  0  0  0  0
   35.9922   14.5949    7.9427 H   0  0  0  0  0  0  0  0  0  0  0  0
   34.7400   15.4479    7.0110 H   0  0  0  0  0  0  0  0  0  0  0  0
   36.9069   13.1492    6.0824 H   0  0  0  0  0  0  0  0  0  0  0  0
   31.4097   13.4994    7.2503 H   0  0  0  0  0  0  0  0  0  0  0  0
  1  2  1  0
  2  3  1  0
  2  4  1  0
  4  5  2  0
  4  6  1  0
  6  7  1  0
  7  8  1  0
  8  9  2  0
  9 10  1  0
 10 11  2  0
 11 12  1  0
 12 13  1  0
 13 14  1  0
 14 15  2  0
 14 16  1  0
 16 17  1  0
 12 18  2  0
 18  8  1  0
  1 19  1  0
  1 20  1  0
  1 21  1  0
  3 22  1  0
  3 23  1  0
  3 24  1  0
  6 25  1  0
  6 26  1  0
  9 27  1  0
 11 28  1  0
 13 29  1  0
 16 30  1  0
 16 31  1  0
 17 32  1  0
 18 33  1  0
M  END
