LIG
     RDKit          3D

 37 37  0  0  0  0  0  0  0  0999 V2000
   30.1504    8.7515    8.4072 C   0  0  0  0  0  0  0  0  0  0  0  0
   30.9560    9.8158    7.7332 C   0  0  0  0  0  0  0  0  0  0  0  0
   32.0445    9.4440    6.9253 C   0  0  0  0  0  0  0  0  0  0  0  0
   32.8894   10.4036    6.3730 C   0  0  0  0  0  0  0  0  0  0  0  0
   32.6724   11.7329    6.7027 C   0  0  0  0  0  0  0  0  0  0  0  0
   33.6630   12.6844    6.4753 N   0  0  0  0  0  0  0  0  0  0  0  0
   34.1548   13.4003    7.5632 C   0  0  0  0  0  0  0  0  0  0  0  0
   33.8291   13.2259    8.7387 O   0  0  0  0  0  0  0  0  0  0  0  0
   35.1950   14.4178    7.1654 C   0  0  0  0  0  0  0  0  0  0  0  0
   35.3717   14.4853    5.7444 O   0  0  0  0  0  0  0  0  0  0  0  0
   36.5089   15.2770    5.4722 C   0  0  0  0  0  0  0  0  0  0  0  0
   36.8464   15.8717    4.1014 C   0  0  0  0  0  0  0  0  0  0  0  0
   37.3235   17.0060    4.0085 O   0  0  0  0  0  0  0  0  0  0  0  0
   36.7249   15.0338    3.0075 N   0  0  0  0  0  0  0  0  0  0  0  0
   36.2338   13.6743    3.0927 C   0  0  0  0  0  0  0  0  0  0  0  0
   36.8722   15.6060    1.6844 C   0  0  0  0  0  0  0  0  0  0  0  0
   31.5221   12.1274    7.3740 C   0  0  0  0  0  0  0  0  0  0  0  0
   30.6630   11.1712    7.8671 C   0  0  0  0  0  0  0  0  0  0  0  0
   29.5516   11.6568    8.4771 O   0  0  0  0  0  0  0  0  0  0  0  0
   30.6468    7.7871    8.3253 H   0  0  0  0  0  0  0  0  0  0  0  0
   30.0552    8.9650    9.4755 H   0  0  0  0  0  0  0  0  0  0  0  0
   29.1639    8.6570    7.9548 H   0  0  0  0  0  0  0  0  0  0  0  0
   32.2770    8.3915    6.7792 H   0  0  0  0  0  0  0  0  0  0  0  0
   33.7714   10.0900    5.8237 H   0  0  0  0  0  0  0  0  0  0  0  0
   34.3846   12.5010    5.7865 H   0  0  0  0  0  0  0  0  0  0  0  0
   36.1320   14.1230    7.6513 H   0  0  0  0  0  0  0  0  0  0  0  0
   34.8611   15.3886    7.5340 H   0  0  0  0  0  0  0  0  0  0  0  0
   37.3907   14.6811    5.7373 H   0  0  0  0  0  0  0  0  0  0  0  0
   36.4376   16.1412    6.1221 H   0  0  0  0  0  0  0  0  0  0  0  0
   35.1402   13.6934    3.0932 H   0  0  0  0  0  0  0  0  0  0  0  0
   36.5861   13.1014    2.2294 H   0  0  0  0  0  0  0  0  0  0  0  0
   36.5972   13.1766    3.9945 H   0  0  0  0  0  0  0  0  0  0  0  0
   37.5464   14.9745    1.0982 H   0  0  0  0  0  0  0  0  0  0  0  0
   35.8890   15.6306    1.2046 H   0  0  0  0  0  0  0  0  0  0  0  0
   37.2759   16.6214    1.7063 H   0  0  0  0  0  0  0  0  0  0  0  0
   31.3231   13.1763    7.5722 H   0  0  0  0  0  0  0  0  0  0  0  0
   29.5530   11.3501    9.4084 H   0  0  0  0  0  0  0  0  0  0  0  0
  1  2  1  0
  2  3  2  0
  3  4  1  0
  4  5  2  0
  5  6  1  0
  6  7  1  0
  7  8  2  0
  7  9  1  0
  9 10  1  0
 10 11  1  0
 11 12  1  0
 12 13  2  0
 12 14  1  0
 14 15  1  0
 14 16  1  0
  5 17  1  0
 17 18  2  0
 18 19  1  0
 18  2  1  0
  1 20  1  0
  1 21  1  0
  1 22  1  0
  3 23  1  0
  4 24  1  0
  6 25  1  0
  9 26  1  0
  9 27  1  0
 11 28  1  0
 11 29  1  0
 15 30  1  0
 15 31  1  0
 15 32  1  0
 16 33  1  0
 16 34  1  0
 16 35  1  0
 17 36  1  0
 19 37  1  0
M  END
