LIG
     RDKit          3D

 38 39  0  0  0  0  0  0  0  0999 V2000
   35.2771    8.5970    3.9693 C   0  0  0  0  0  0  0  0  0  0  0  0
   34.5630    9.6281    4.7922 C   0  0  0  0  0  0  0  0  0  0  0  0
   34.7445   10.8228    4.5735 O   0  0  0  0  0  0  0  0  0  0  0  0
   33.7007    9.0333    5.7118 N   0  0  0  0  0  0  0  0  0  0  0  0
   32.6900    9.6643    6.4610 C   0  0  0  0  0  0  0  0  0  0  0  0
   32.3544   10.9454    6.1652 C   0  0  0  0  0  0  0  0  0  0  0  0
   31.3350   11.5541    6.8684 C   0  0  0  0  0  0  0  0  0  0  0  0
   30.9295   12.7424    6.3981 O   0  0  0  0  0  0  0  0  0  0  0  0
   31.9092   13.6867    6.6578 C   0  0  0  0  0  0  0  0  0  0  0  0
   33.2877   13.6101    7.3286 C   0  0  0  0  0  0  0  0  0  0  0  0
   33.3180   13.4021    8.5465 O   0  0  0  0  0  0  0  0  0  0  0  0
   34.4188   13.8527    6.5709 N   0  0  0  0  0  0  0  0  0  0  0  0
   35.6547   14.0742    7.3103 C   0  0  0  0  0  0  0  0  0  0  0  0
   36.8480   13.6141    6.4847 C   0  0  0  0  0  0  0  0  0  0  0  0
   36.9350   14.4096    5.2938 O   0  0  0  0  0  0  0  0  0  0  0  0
   35.8012   14.1188    4.4666 C   0  0  0  0  0  0  0  0  0  0  0  0
   34.4591   14.3421    5.1847 C   0  0  0  0  0  0  0  0  0  0  0  0
   30.6392   10.9666    7.9063 C   0  0  0  0  0  0  0  0  0  0  0  0
   30.9418    9.6626    8.2055 C   0  0  0  0  0  0  0  0  0  0  0  0
   31.9369    9.0263    7.4666 C   0  0  0  0  0  0  0  0  0  0  0  0
   32.1731    7.7628    7.7884 F   0  0  0  0  0  0  0  0  0  0  0  0
   34.5742    8.1346    3.2707 H   0  0  0  0  0  0  0  0  0  0  0  0
   35.7192    7.8292    4.6098 H   0  0  0  0  0  0  0  0  0  0  0  0
   36.0829    9.0721    3.4022 H   0  0  0  0  0  0  0  0  0  0  0  0
   33.8147    8.0273    5.8803 H   0  0  0  0  0  0  0  0  0  0  0  0
   32.8052   11.4862    5.3438 H   0  0  0  0  0  0  0  0  0  0  0  0
   31.3807   14.2702    7.4177 H   0  0  0  0  0  0  0  0  0  0  0  0
   31.9976   14.2557    5.7337 H   0  0  0  0  0  0  0  0  0  0  0  0
   35.7046   15.1492    7.5042 H   0  0  0  0  0  0  0  0  0  0  0  0
   35.6421   13.5634    8.2767 H   0  0  0  0  0  0  0  0  0  0  0  0
   37.7826   13.7122    7.0420 H   0  0  0  0  0  0  0  0  0  0  0  0
   36.7627   12.5598    6.2001 H   0  0  0  0  0  0  0  0  0  0  0  0
   35.8852   13.0836    4.1196 H   0  0  0  0  0  0  0  0  0  0  0  0
   35.8570   14.7580    3.5794 H   0  0  0  0  0  0  0  0  0  0  0  0
   34.2764   15.4122    5.2489 H   0  0  0  0  0  0  0  0  0  0  0  0
   33.6568   13.8923    4.5945 H   0  0  0  0  0  0  0  0  0  0  0  0
   29.8503   11.4950    8.4295 H   0  0  0  0  0  0  0  0  0  0  0  0
   30.4154    9.1172    8.9821 H   0  0  0  0  0  0  0  0  0  0  0  0
  1  2  1  0
  2  3  2  0
  2  4  1  0
  4  5  1  0
  5  6  2  0
  6  7  1  0
  7  8  1  0
  8  9  1  0
  9 10  1  0
 10 11  2  0
 10 12  1  0
 12 13  1  0
 13 14  1  0
 14 15  1  0
 15 16  1  0
 16 17  1  0
  7 18  2  0
 18 19  1  0
 19 20  2  0
 20 21  1  0
 20  5  1  0
 17 12  1  0
  1 22  1  0
  1 23  1  0
  1 24  1  0
  4 25  1  0
  6 26  1  0
  9 27  1  0
  9 28  1  0
 13 29  1  0
 13 30  1  0
 14 31  1  0
 14 32  1  0
 16 33  1  0
 16 34  1  0
 17 35  1  0
 17 36  1  0
 18 37  1  0
 19 38  1  0
M  END
