LIG
     RDKit          3D

 27 27  0  0  0  0  0  0  0  0999 V2000
    2.6709   -3.0624   -0.7469 N   0  0  0  0  0  0  0  0  0  0  0  0
    2.2605   -2.4427   -1.6381 C   0  0  0  0  0  0  0  0  0  0  0  0
    1.6765   -1.6708   -2.7332 C   0  0  0  0  0  0  0  0  0  0  0  0
    1.4730   -0.2260   -2.3280 C   0  0  0  0  0  0  0  0  0  0  0  0
    2.0538    0.6716   -2.9320 O   0  0  0  0  0  0  0  0  0  0  0  0
    0.5784   -0.0573   -1.2804 N   0  0  0  0  0  0  0  0  0  0  0  0
    0.1049    1.1693   -0.7361 C   0  0  0  0  0  0  0  0  0  0  0  0
    0.3196    2.3917   -1.3763 C   0  0  0  0  0  0  0  0  0  0  0  0
   -0.2470    3.5371   -0.8431 C   0  0  0  0  0  0  0  0  0  0  0  0
   -1.0062    3.5487    0.2671 N   0  0  0  0  0  0  0  0  0  0  0  0
   -1.1914    2.3600    0.8910 C   0  0  0  0  0  0  0  0  0  0  0  0
   -0.6552    1.1486    0.4550 C   0  0  0  0  0  0  0  0  0  0  0  0
   -0.8029   -0.0579    1.1748 N   0  0  0  0  0  0  0  0  0  0  0  0
   -1.5554   -0.2915    2.3111 C   0  0  0  0  0  0  0  0  0  0  0  0
   -2.2954    0.4993    2.8825 O   0  0  0  0  0  0  0  0  0  0  0  0
   -1.3666   -1.7297    2.8087 C   0  0  0  0  0  0  0  0  0  0  0  0
   -0.5055   -2.4710    1.9397 O   0  0  0  0  0  0  0  0  0  0  0  0
    2.3323   -1.7001   -3.6102 H   0  0  0  0  0  0  0  0  0  0  0  0
    0.7091   -2.0869   -3.0349 H   0  0  0  0  0  0  0  0  0  0  0  0
    0.2112   -0.8961   -0.8523 H   0  0  0  0  0  0  0  0  0  0  0  0
    0.8867    2.4874   -2.2934 H   0  0  0  0  0  0  0  0  0  0  0  0
   -0.1079    4.5028   -1.3210 H   0  0  0  0  0  0  0  0  0  0  0  0
   -1.7892    2.4417    1.7928 H   0  0  0  0  0  0  0  0  0  0  0  0
   -0.2412   -0.8642    0.9212 H   0  0  0  0  0  0  0  0  0  0  0  0
   -2.3399   -2.2265    2.8420 H   0  0  0  0  0  0  0  0  0  0  0  0
   -0.9170   -1.6946    3.8053 H   0  0  0  0  0  0  0  0  0  0  0  0
   -0.2560   -3.2807    2.4242 H   0  0  0  0  0  0  0  0  0  0  0  0
  1  2  3  0
  2  3  1  0
  3  4  1  0
  4  5  2  0
  4  6  1  0
  6  7  1  0
  7  8  2  0
  8  9  1  0
  9 10  2  0
 10 11  1  0
 11 12  2  0
 12 13  1  0
 13 14  1  0
 14 15  2  0
 14 16  1  0
 16 17  1  0
 12  7  1  0
  3 18  1  0
  3 19  1  0
  6 20  1  0
  8 21  1  0
  9 22  1  0
 11 23  1  0
 13 24  1  0
 16 25  1  0
 16 26  1  0
 17 27  1  0
M  END
