LIG
     RDKit          3D

 28 28  0  0  0  0  0  0  0  0999 V2000
   34.1980   10.0910    5.5530 C   0  0  0  0  0  0  0  0  0  0  0  0
   33.0110   10.3720    6.4380 N   0  0  0  0  0  0  0  0  0  0  0  0
   32.1560    9.3390    6.8090 N   0  0  0  0  0  0  0  0  0  0  0  0
   31.0170    9.5590    7.5720 C   0  0  0  0  0  0  0  0  0  0  0  0
   30.7220   10.8640    7.9390 C   0  0  0  0  0  0  0  0  0  0  0  0
   31.5450   11.9340    7.6020 N   0  0  0  0  0  0  0  0  0  0  0  0
   31.1650   13.3330    8.0150 C   0  0  0  0  0  0  0  0  0  0  0  0
   29.9180   12.6920    6.3980 O   0  0  0  0  0  0  0  0  0  0  0  0
   28.7130   13.3600    8.3510 C   0  0  0  0  0  0  0  0  0  0  0  0
   28.5830   14.6820    7.7450 C   0  0  0  0  0  0  0  0  0  0  0  0
   28.5580   15.7160    7.2730 N   0  0  0  0  0  0  0  0  0  0  0  0
   32.7080   11.6650    6.8730 C   0  0  0  0  0  0  0  0  0  0  0  0
   33.6520   12.7090    6.6590 N   0  0  0  0  0  0  0  0  0  0  0  0
   34.4250   13.2280    7.6390 C   0  0  0  0  0  0  0  0  0  0  0  0
   34.9120   12.5690    8.5560 O   0  0  0  0  0  0  0  0  0  0  0  0
   34.6680   14.7180    7.5670 C   0  0  0  0  0  0  0  0  0  0  0  0
   35.0470   15.1300    6.2680 O   0  0  0  0  0  0  0  0  0  0  0  0
   34.7854    9.3280    6.0495 H   0  0  0  0  0  0  0  0  0  0  0  0
   34.7396   11.0235    5.4488 H   0  0  0  0  0  0  0  0  0  0  0  0
   33.8300    9.7423    4.5957 H   0  0  0  0  0  0  0  0  0  0  0  0
   30.4455    8.6303    7.8130 H   0  0  0  0  0  0  0  0  0  0  0  0
   32.3673   11.7932    7.1279 H   0  0  0  0  0  0  0  0  0  0  0  0
   28.9661   13.2749    9.3450 H   0  0  0  0  0  0  0  0  0  0  0  0
   28.7130   12.5221    7.7773 H   0  0  0  0  0  0  0  0  0  0  0  0
   33.7665   13.0733    5.7357 H   0  0  0  0  0  0  0  0  0  0  0  0
   33.7424   15.2389    7.8394 H   0  0  0  0  0  0  0  0  0  0  0  0
   35.4585   15.0014    8.2730 H   0  0  0  0  0  0  0  0  0  0  0  0
   34.2401   15.4660    5.8307 H   0  0  0  0  0  0  0  0  0  0  0  0
  1  2  1  0
  2  3  4  0
  3  4  4  0
  4  5  4  0
  5  6  1  0
  6  7  1  0
  7  8  2  0
  7  9  1  0
  9 10  1  0
 10 11  3  0
  5 12  4  0
 12 13  1  0
 13 14  1  0
 14 15  2  0
 14 16  1  0
 16 17  1  0
 12  2  4  0
  1 18  1  0
  1 19  1  0
  1 20  1  0
  4 21  1  0
  6 22  1  0
  9 23  1  0
  9 24  1  0
 13 25  1  0
 16 26  1  0
 16 27  1  0
 17 28  1  0
M  END
$$$$
