LIG
     RDKit          3D

 41 42  0  0  0  0  0  0  0  0999 V2000
   34.4770    9.6170    4.1420 C   0  0  0  0  0  0  0  0  0  0  0  0
   34.7220   11.0190    4.6240 C   0  0  0  0  0  0  0  0  0  0  0  0
   35.7630   11.6170    4.3630 O   0  0  0  0  0  0  0  0  0  0  0  0
   33.6960   11.5950    5.3080 N   0  0  0  0  0  0  0  0  0  0  0  0
   32.8929   10.8322    7.3421 C   0  0  0  0  0  0  0  0  0  0  0  0
   31.8380   11.8440    8.5230 C   0  0  0  0  0  0  0  0  0  0  0  0
   32.8900   11.5720    7.6690 C   0  0  0  0  0  0  0  0  0  0  0  0
   33.3940   12.4720    6.7660 O   0  0  0  0  0  0  0  0  0  0  0  0
   32.5070   13.2300    6.0470 C   0  0  0  0  0  0  0  0  0  0  0  0
   32.8430   14.5690    6.5820 C   0  0  0  0  0  0  0  0  0  0  0  0
   32.2450   15.0040    7.5510 O   0  0  0  0  0  0  0  0  0  0  0  0
   33.9260   15.1770    6.0590 N   0  0  0  0  0  0  0  0  0  0  0  0
   34.5050   15.1130    4.7140 C   0  0  0  0  0  0  0  0  0  0  0  0
   35.9790   14.7950    4.8070 C   0  0  0  0  0  0  0  0  0  0  0  0
   36.6530   15.7410    5.6230 O   0  0  0  0  0  0  0  0  0  0  0  0
   36.2000   15.5640    6.9400 C   0  0  0  0  0  0  0  0  0  0  0  0
   34.7260   15.9040    7.0650 C   0  0  0  0  0  0  0  0  0  0  0  0
   33.3470   10.2740    7.4930 C   0  0  0  0  0  0  0  0  0  0  0  0
   32.6580    9.2460    8.1260 C   0  0  0  0  0  0  0  0  0  0  0  0
   31.5630    9.4800    8.9430 C   0  0  0  0  0  0  0  0  0  0  0  0
   30.8480    8.3410    9.6370 C   0  0  0  0  0  0  0  0  0  0  0  0
   34.8025    8.9059    4.9070 H   0  0  0  0  0  0  0  0  0  0  0  0
   33.7935    9.1079    4.8293 H   0  0  0  0  0  0  0  0  0  0  0  0
   33.4160    9.4566    3.9233 H   0  0  0  0  0  0  0  0  0  0  0  0
   33.1075   10.9482    5.8270 H   0  0  0  0  0  0  0  0  0  0  0  0
   31.6304   12.8665    8.8318 H   0  0  0  0  0  0  0  0  0  0  0  0
   32.7481   13.2167    5.0096 H   0  0  0  0  0  0  0  0  0  0  0  0
   31.4906   13.0142    6.2690 H   0  0  0  0  0  0  0  0  0  0  0  0
   33.9858   14.3624    4.1179 H   0  0  0  0  0  0  0  0  0  0  0  0
   34.3545   16.0978    4.2636 H   0  0  0  0  0  0  0  0  0  0  0  0
   36.4404   14.8129    3.8228 H   0  0  0  0  0  0  0  0  0  0  0  0
   36.1341   13.8084    5.2414 H   0  0  0  0  0  0  0  0  0  0  0  0
   36.3750   14.5288    7.2279 H   0  0  0  0  0  0  0  0  0  0  0  0
   36.7914   16.2055    7.5941 H   0  0  0  0  0  0  0  0  0  0  0  0
   34.3381   15.5930    8.0427 H   0  0  0  0  0  0  0  0  0  0  0  0
   34.5648   16.9822    6.9609 H   0  0  0  0  0  0  0  0  0  0  0  0
   34.1987   10.0646    6.8748 H   0  0  0  0  0  0  0  0  0  0  0  0
   32.9945    8.2146    7.9402 H   0  0  0  0  0  0  0  0  0  0  0  0
   30.0649    7.9356    8.9933 H   0  0  0  0  0  0  0  0  0  0  0  0
   29.7728    8.5224    9.6997 H   0  0  0  0  0  0  0  0  0  0  0  0
   30.9617    7.4157    9.0626 H   0  0  0  0  0  0  0  0  0  0  0  0
  1  2  1  0
  2  3  2  0
  2  4  1  0
  4  5  1  0
  5  6  4  0
  6  7  4  0
  7  8  1  0
  8  9  1  0
  9 10  1  0
 10 11  2  0
 10 12  1  0
 12 13  1  0
 13 14  1  0
 14 15  1  0
 15 16  1  0
 16 17  1  0
  7 18  4  0
 18 19  4  0
 19 20  4  0
 20 21  1  0
 20  5  4  0
 17 12  1  0
  1 22  1  0
  1 23  1  0
  1 24  1  0
  4 25  1  0
  6 26  1  0
  9 27  1  0
  9 28  1  0
 13 29  1  0
 13 30  1  0
 14 31  1  0
 14 32  1  0
 16 33  1  0
 16 34  1  0
 17 35  1  0
 17 36  1  0
 18 37  1  0
 19 38  1  0
 21 39  1  0
 21 40  1  0
 21 41  1  0
M  END
$$$$
LIG
     RDKit          3D

 41 42  0  0  0  0  0  0  0  0999 V2000
   34.4770    9.6170    4.1420 C   0  0  0  0  0  0  0  0  0  0  0  0
   34.7220   11.0190    4.6240 C   0  0  0  0  0  0  0  0  0  0  0  0
   35.7630   11.6170    4.3630 O   0  0  0  0  0  0  0  0  0  0  0  0
   33.6960   11.5950    5.3080 N   0  0  0  0  0  0  0  0  0  0  0  0
   32.7770   10.5652    7.2561 C   0  0  0  0  0  0  0  0  0  0  0  0
   31.8380   11.8440    8.5230 C   0  0  0  0  0  0  0  0  0  0  0  0
   32.8900   11.5720    7.6690 C   0  0  0  0  0  0  0  0  0  0  0  0
   33.3940   12.4720    6.7660 O   0  0  0  0  0  0  0  0  0  0  0  0
   32.5070   13.2300    6.0470 C   0  0  0  0  0  0  0  0  0  0  0  0
   32.8430   14.5690    6.5820 C   0  0  0  0  0  0  0  0  0  0  0  0
   32.2450   15.0040    7.5510 O   0  0  0  0  0  0  0  0  0  0  0  0
   33.9260   15.1770    6.0590 N   0  0  0  0  0  0  0  0  0  0  0  0
   34.7260   15.9040    7.0650 C   0  0  0  0  0  0  0  0  0  0  0  0
   36.2000   15.5640    6.9400 C   0  0  0  0  0  0  0  0  0  0  0  0
   36.6530   15.7410    5.6230 O   0  0  0  0  0  0  0  0  0  0  0  0
   35.9790   14.7950    4.8070 C   0  0  0  0  0  0  0  0  0  0  0  0
   34.5050   15.1130    4.7140 C   0  0  0  0  0  0  0  0  0  0  0  0
   33.3470   10.2740    7.4930 C   0  0  0  0  0  0  0  0  0  0  0  0
   32.6580    9.2460    8.1260 C   0  0  0  0  0  0  0  0  0  0  0  0
   31.5630    9.4800    8.9430 C   0  0  0  0  0  0  0  0  0  0  0  0
   30.8480    8.3410    9.6370 C   0  0  0  0  0  0  0  0  0  0  0  0
   34.9785    8.8962    4.7969 H   0  0  0  0  0  0  0  0  0  0  0  0
   34.8780    9.4977    3.1294 H   0  0  0  0  0  0  0  0  0  0  0  0
   33.4011    9.4139    4.1228 H   0  0  0  0  0  0  0  0  0  0  0  0
   33.5709   11.2919    6.2687 H   0  0  0  0  0  0  0  0  0  0  0  0
   31.5455   11.0628    9.2255 H   0  0  0  0  0  0  0  0  0  0  0  0
   31.5043   13.0050    6.3198 H   0  0  0  0  0  0  0  0  0  0  0  0
   32.7371   13.2024    5.0101 H   0  0  0  0  0  0  0  0  0  0  0  0
   34.5567   16.9714    6.8736 H   0  0  0  0  0  0  0  0  0  0  0  0
   34.3598   15.6782    8.0727 H   0  0  0  0  0  0  0  0  0  0  0  0
   36.7921   16.1974    7.5966 H   0  0  0  0  0  0  0  0  0  0  0  0
   36.3695   14.5250    7.2201 H   0  0  0  0  0  0  0  0  0  0  0  0
   36.4428   14.8093    3.8204 H   0  0  0  0  0  0  0  0  0  0  0  0
   36.1331   13.8091    5.2418 H   0  0  0  0  0  0  0  0  0  0  0  0
   33.9706   14.3191    4.1866 H   0  0  0  0  0  0  0  0  0  0  0  0
   34.3429   16.0565    4.1940 H   0  0  0  0  0  0  0  0  0  0  0  0
   34.2018   10.0318    6.8910 H   0  0  0  0  0  0  0  0  0  0  0  0
   33.0097    8.2157    7.9592 H   0  0  0  0  0  0  0  0  0  0  0  0
   31.2615    8.1913   10.6382 H   0  0  0  0  0  0  0  0  0  0  0  0
   30.3528    8.6767   10.5529 H   0  0  0  0  0  0  0  0  0  0  0  0
   29.7776    8.5543    9.7043 H   0  0  0  0  0  0  0  0  0  0  0  0
  1  2  1  0
  2  3  2  0
  2  4  1  0
  4  5  1  0
  5  6  4  0
  6  7  4  0
  7  8  1  0
  8  9  1  0
  9 10  1  0
 10 11  2  0
 10 12  1  0
 12 13  1  0
 13 14  1  0
 14 15  1  0
 15 16  1  0
 16 17  1  0
  7 18  4  0
 18 19  4  0
 19 20  4  0
 20 21  1  0
 20  5  4  0
 17 12  1  0
  1 22  1  0
  1 23  1  0
  1 24  1  0
  4 25  1  0
  6 26  1  0
  9 27  1  0
  9 28  1  0
 13 29  1  0
 13 30  1  0
 14 31  1  0
 14 32  1  0
 16 33  1  0
 16 34  1  0
 17 35  1  0
 17 36  1  0
 18 37  1  0
 19 38  1  0
 21 39  1  0
 21 40  1  0
 21 41  1  0
M  END
$$$$
LIG
     RDKit          3D

 41 42  0  0  0  0  0  0  0  0999 V2000
   34.4770    9.6170    4.1420 C   0  0  0  0  0  0  0  0  0  0  0  0
   34.7220   11.0190    4.6240 C   0  0  0  0  0  0  0  0  0  0  0  0
   35.7630   11.6170    4.3630 O   0  0  0  0  0  0  0  0  0  0  0  0
   33.6960   11.5950    5.3080 N   0  0  0  0  0  0  0  0  0  0  0  0
   32.8024   10.4886    7.2453 C   0  0  0  0  0  0  0  0  0  0  0  0
   33.3470   10.2740    7.4930 C   0  0  0  0  0  0  0  0  0  0  0  0
   32.8900   11.5720    7.6690 C   0  0  0  0  0  0  0  0  0  0  0  0
   33.3940   12.4720    6.7660 O   0  0  0  0  0  0  0  0  0  0  0  0
   32.5070   13.2300    6.0470 C   0  0  0  0  0  0  0  0  0  0  0  0
   32.8430   14.5690    6.5820 C   0  0  0  0  0  0  0  0  0  0  0  0
   32.2450   15.0040    7.5510 O   0  0  0  0  0  0  0  0  0  0  0  0
   33.9260   15.1770    6.0590 N   0  0  0  0  0  0  0  0  0  0  0  0
   34.5050   15.1130    4.7140 C   0  0  0  0  0  0  0  0  0  0  0  0
   35.9790   14.7950    4.8070 C   0  0  0  0  0  0  0  0  0  0  0  0
   36.6530   15.7410    5.6230 O   0  0  0  0  0  0  0  0  0  0  0  0
   36.2000   15.5640    6.9400 C   0  0  0  0  0  0  0  0  0  0  0  0
   34.7260   15.9040    7.0650 C   0  0  0  0  0  0  0  0  0  0  0  0
   31.8380   11.8440    8.5230 C   0  0  0  0  0  0  0  0  0  0  0  0
   31.1650   10.7950    9.1290 C   0  0  0  0  0  0  0  0  0  0  0  0
   31.5630    9.4800    8.9430 C   0  0  0  0  0  0  0  0  0  0  0  0
   30.8480    8.3410    9.6370 C   0  0  0  0  0  0  0  0  0  0  0  0
   33.6214    9.1881    4.6736 H   0  0  0  0  0  0  0  0  0  0  0  0
   34.5729    8.9173    4.9782 H   0  0  0  0  0  0  0  0  0  0  0  0
   35.3499    8.9849    4.3362 H   0  0  0  0  0  0  0  0  0  0  0  0
   33.4817   12.5580    5.0693 H   0  0  0  0  0  0  0  0  0  0  0  0
   32.9768    9.7262    6.6272 H   0  0  0  0  0  0  0  0  0  0  0  0
   32.7458   13.2164    5.0109 H   0  0  0  0  0  0  0  0  0  0  0  0
   31.5049   12.9925    6.3087 H   0  0  0  0  0  0  0  0  0  0  0  0
   34.3492   16.0970    4.2653 H   0  0  0  0  0  0  0  0  0  0  0  0
   33.9825   14.3646    4.1191 H   0  0  0  0  0  0  0  0  0  0  0  0
   36.1369   13.8058    5.2372 H   0  0  0  0  0  0  0  0  0  0  0  0
   36.4402   14.8158    3.8213 H   0  0  0  0  0  0  0  0  0  0  0  0
   36.7895   16.2087    7.5908 H   0  0  0  0  0  0  0  0  0  0  0  0
   36.3761   14.5303    7.2293 H   0  0  0  0  0  0  0  0  0  0  0  0
   34.5666   16.9834    6.9646 H   0  0  0  0  0  0  0  0  0  0  0  0
   34.3380   15.5933    8.0434 H   0  0  0  0  0  0  0  0  0  0  0  0
   31.5121   12.8552    8.7382 H   0  0  0  0  0  0  0  0  0  0  0  0
   30.3038   11.0283    9.7632 H   0  0  0  0  0  0  0  0  0  0  0  0
   29.8572    8.6645    9.9676 H   0  0  0  0  0  0  0  0  0  0  0  0
   31.4325    7.9964   10.4945 H   0  0  0  0  0  0  0  0  0  0  0  0
   30.7097    7.4867    8.9678 H   0  0  0  0  0  0  0  0  0  0  0  0
  1  2  1  0
  2  3  2  0
  2  4  1  0
  4  5  1  0
  5  6  4  0
  6  7  4  0
  7  8  1  0
  8  9  1  0
  9 10  1  0
 10 11  2  0
 10 12  1  0
 12 13  1  0
 13 14  1  0
 14 15  1  0
 15 16  1  0
 16 17  1  0
  7 18  4  0
 18 19  4  0
 19 20  4  0
 20 21  1  0
 20  5  4  0
 17 12  1  0
  1 22  1  0
  1 23  1  0
  1 24  1  0
  4 25  1  0
  6 26  1  0
  9 27  1  0
  9 28  1  0
 13 29  1  0
 13 30  1  0
 14 31  1  0
 14 32  1  0
 16 33  1  0
 16 34  1  0
 17 35  1  0
 17 36  1  0
 18 37  1  0
 19 38  1  0
 21 39  1  0
 21 40  1  0
 21 41  1  0
M  END
$$$$
LIG
     RDKit          3D

 41 42  0  0  0  0  0  0  0  0999 V2000
   34.4770    9.6170    4.1420 C   0  0  0  0  0  0  0  0  0  0  0  0
   34.7220   11.0190    4.6240 C   0  0  0  0  0  0  0  0  0  0  0  0
   35.7630   11.6170    4.3630 O   0  0  0  0  0  0  0  0  0  0  0  0
   33.6960   11.5950    5.3080 N   0  0  0  0  0  0  0  0  0  0  0  0
   32.8078   10.4861    7.2485 C   0  0  0  0  0  0  0  0  0  0  0  0
   33.3470   10.2740    7.4930 C   0  0  0  0  0  0  0  0  0  0  0  0
   32.8900   11.5720    7.6690 C   0  0  0  0  0  0  0  0  0  0  0  0
   33.3940   12.4720    6.7660 O   0  0  0  0  0  0  0  0  0  0  0  0
   32.5070   13.2300    6.0470 C   0  0  0  0  0  0  0  0  0  0  0  0
   32.8430   14.5690    6.5820 C   0  0  0  0  0  0  0  0  0  0  0  0
   32.2450   15.0040    7.5510 O   0  0  0  0  0  0  0  0  0  0  0  0
   33.9260   15.1770    6.0590 N   0  0  0  0  0  0  0  0  0  0  0  0
   34.7260   15.9040    7.0650 C   0  0  0  0  0  0  0  0  0  0  0  0
   36.2000   15.5640    6.9400 C   0  0  0  0  0  0  0  0  0  0  0  0
   36.6530   15.7410    5.6230 O   0  0  0  0  0  0  0  0  0  0  0  0
   35.9790   14.7950    4.8070 C   0  0  0  0  0  0  0  0  0  0  0  0
   34.5050   15.1130    4.7140 C   0  0  0  0  0  0  0  0  0  0  0  0
   31.8380   11.8440    8.5230 C   0  0  0  0  0  0  0  0  0  0  0  0
   31.1650   10.7950    9.1290 C   0  0  0  0  0  0  0  0  0  0  0  0
   31.5630    9.4800    8.9430 C   0  0  0  0  0  0  0  0  0  0  0  0
   30.8480    8.3410    9.6370 C   0  0  0  0  0  0  0  0  0  0  0  0
   35.4285    9.1526    3.8656 H   0  0  0  0  0  0  0  0  0  0  0  0
   35.0249    8.8925    4.7535 H   0  0  0  0  0  0  0  0  0  0  0  0
   34.0094    9.0302    4.9394 H   0  0  0  0  0  0  0  0  0  0  0  0
   33.2959   12.4325    4.8973 H   0  0  0  0  0  0  0  0  0  0  0  0
   33.0682    9.7663    6.5704 H   0  0  0  0  0  0  0  0  0  0  0  0
   32.7437   13.2086    5.0113 H   0  0  0  0  0  0  0  0  0  0  0  0
   31.5050   13.0003    6.3169 H   0  0  0  0  0  0  0  0  0  0  0  0
   34.5742   16.9799    6.9655 H   0  0  0  0  0  0  0  0  0  0  0  0
   34.3441   15.5887    8.0403 H   0  0  0  0  0  0  0  0  0  0  0  0
   36.3655   14.5153    7.2259 H   0  0  0  0  0  0  0  0  0  0  0  0
   36.8032   16.1838    7.6228 H   0  0  0  0  0  0  0  0  0  0  0  0
   36.1256   13.8021    5.2507 H   0  0  0  0  0  0  0  0  0  0  0  0
   36.4474   14.7814    3.8123 H   0  0  0  0  0  0  0  0  0  0  0  0
   33.9727   14.3178    4.1899 H   0  0  0  0  0  0  0  0  0  0  0  0
   34.3546   16.0474    4.1812 H   0  0  0  0  0  0  0  0  0  0  0  0
   31.5147   12.8553    8.7413 H   0  0  0  0  0  0  0  0  0  0  0  0
   30.3043   11.0283    9.7640 H   0  0  0  0  0  0  0  0  0  0  0  0
   30.4902    8.6638   10.6185 H   0  0  0  0  0  0  0  0  0  0  0  0
   31.3373    8.0740   10.5782 H   0  0  0  0  0  0  0  0  0  0  0  0
   31.5211    7.4865    9.7486 H   0  0  0  0  0  0  0  0  0  0  0  0
  1  2  1  0
  2  3  2  0
  2  4  1  0
  4  5  1  0
  5  6  4  0
  6  7  4  0
  7  8  1  0
  8  9  1  0
  9 10  1  0
 10 11  2  0
 10 12  1  0
 12 13  1  0
 13 14  1  0
 14 15  1  0
 15 16  1  0
 16 17  1  0
  7 18  4  0
 18 19  4  0
 19 20  4  0
 20 21  1  0
 20  5  4  0
 17 12  1  0
  1 22  1  0
  1 23  1  0
  1 24  1  0
  4 25  1  0
  6 26  1  0
  9 27  1  0
  9 28  1  0
 13 29  1  0
 13 30  1  0
 14 31  1  0
 14 32  1  0
 16 33  1  0
 16 34  1  0
 17 35  1  0
 17 36  1  0
 18 37  1  0
 19 38  1  0
 21 39  1  0
 21 40  1  0
 21 41  1  0
M  END
$$$$
LIG
     RDKit          3D

 41 42  0  0  0  0  0  0  0  0999 V2000
   34.4770    9.6170    4.1420 C   0  0  0  0  0  0  0  0  0  0  0  0
   34.7220   11.0190    4.6240 C   0  0  0  0  0  0  0  0  0  0  0  0
   35.7630   11.6170    4.3630 O   0  0  0  0  0  0  0  0  0  0  0  0
   33.6960   11.5950    5.3080 N   0  0  0  0  0  0  0  0  0  0  0  0
   32.8096   10.4852    7.2496 C   0  0  0  0  0  0  0  0  0  0  0  0
   33.3470   10.2740    7.4930 C   0  0  0  0  0  0  0  0  0  0  0  0
   32.8900   11.5720    7.6690 C   0  0  0  0  0  0  0  0  0  0  0  0
   33.3940   12.4720    6.7660 O   0  0  0  0  0  0  0  0  0  0  0  0
   32.5070   13.2300    6.0470 C   0  0  0  0  0  0  0  0  0  0  0  0
   32.8430   14.5690    6.5820 C   0  0  0  0  0  0  0  0  0  0  0  0
   32.2450   15.0040    7.5510 O   0  0  0  0  0  0  0  0  0  0  0  0
   33.9260   15.1770    6.0590 N   0  0  0  0  0  0  0  0  0  0  0  0
   34.5050   15.1130    4.7140 C   0  0  0  0  0  0  0  0  0  0  0  0
   35.9790   14.7950    4.8070 C   0  0  0  0  0  0  0  0  0  0  0  0
   36.6530   15.7410    5.6230 O   0  0  0  0  0  0  0  0  0  0  0  0
   36.2000   15.5640    6.9400 C   0  0  0  0  0  0  0  0  0  0  0  0
   34.7260   15.9040    7.0650 C   0  0  0  0  0  0  0  0  0  0  0  0
   31.8380   11.8440    8.5230 C   0  0  0  0  0  0  0  0  0  0  0  0
   31.1650   10.7950    9.1290 C   0  0  0  0  0  0  0  0  0  0  0  0
   31.5630    9.4800    8.9430 C   0  0  0  0  0  0  0  0  0  0  0  0
   30.8480    8.3410    9.6370 C   0  0  0  0  0  0  0  0  0  0  0  0
   34.4405    8.9150    4.9817 H   0  0  0  0  0  0  0  0  0  0  0  0
   35.3019    8.9714    4.4584 H   0  0  0  0  0  0  0  0  0  0  0  0
   35.2927    9.3080    3.4801 H   0  0  0  0  0  0  0  0  0  0  0  0
   33.6525   12.6088    5.2842 H   0  0  0  0  0  0  0  0  0  0  0  0
   33.0520    9.7593    6.5794 H   0  0  0  0  0  0  0  0  0  0  0  0
   31.5042   13.0048    6.3196 H   0  0  0  0  0  0  0  0  0  0  0  0
   32.7370   13.2024    5.0099 H   0  0  0  0  0  0  0  0  0  0  0  0
   33.9705   14.3191    4.1866 H   0  0  0  0  0  0  0  0  0  0  0  0
   34.3428   16.0566    4.1943 H   0  0  0  0  0  0  0  0  0  0  0  0
   36.1334   13.8090    5.2419 H   0  0  0  0  0  0  0  0  0  0  0  0
   36.4431   14.8091    3.8204 H   0  0  0  0  0  0  0  0  0  0  0  0
   36.7920   16.1973    7.5966 H   0  0  0  0  0  0  0  0  0  0  0  0
   36.3693   14.5249    7.2198 H   0  0  0  0  0  0  0  0  0  0  0  0
   34.3597   15.6783    8.0728 H   0  0  0  0  0  0  0  0  0  0  0  0
   34.5565   16.9715    6.8736 H   0  0  0  0  0  0  0  0  0  0  0  0
   31.5160   12.8554    8.7428 H   0  0  0  0  0  0  0  0  0  0  0  0
   30.3047   11.0284    9.7645 H   0  0  0  0  0  0  0  0  0  0  0  0
   29.7654    8.4735    9.5596 H   0  0  0  0  0  0  0  0  0  0  0  0
   30.2014    8.7295   10.4286 H   0  0  0  0  0  0  0  0  0  0  0  0
   31.0995    8.2980   10.7007 H   0  0  0  0  0  0  0  0  0  0  0  0
  1  2  1  0
  2  3  2  0
  2  4  1  0
  4  5  1  0
  5  6  4  0
  6  7  4  0
  7  8  1  0
  8  9  1  0
  9 10  1  0
 10 11  2  0
 10 12  1  0
 12 13  1  0
 13 14  1  0
 14 15  1  0
 15 16  1  0
 16 17  1  0
  7 18  4  0
 18 19  4  0
 19 20  4  0
 20 21  1  0
 20  5  4  0
 17 12  1  0
  1 22  1  0
  1 23  1  0
  1 24  1  0
  4 25  1  0
  6 26  1  0
  9 27  1  0
  9 28  1  0
 13 29  1  0
 13 30  1  0
 14 31  1  0
 14 32  1  0
 16 33  1  0
 16 34  1  0
 17 35  1  0
 17 36  1  0
 18 37  1  0
 19 38  1  0
 21 39  1  0
 21 40  1  0
 21 41  1  0
M  END
$$$$
LIG
     RDKit          3D

 41 42  0  0  0  0  0  0  0  0999 V2000
   34.4770    9.6170    4.1420 C   0  0  0  0  0  0  0  0  0  0  0  0
   34.7220   11.0190    4.6240 C   0  0  0  0  0  0  0  0  0  0  0  0
   35.7630   11.6170    4.3630 O   0  0  0  0  0  0  0  0  0  0  0  0
   33.6960   11.5950    5.3080 N   0  0  0  0  0  0  0  0  0  0  0  0
   32.7872   10.5607    7.2609 C   0  0  0  0  0  0  0  0  0  0  0  0
   31.8380   11.8440    8.5230 C   0  0  0  0  0  0  0  0  0  0  0  0
   32.8900   11.5720    7.6690 C   0  0  0  0  0  0  0  0  0  0  0  0
   33.3940   12.4720    6.7660 O   0  0  0  0  0  0  0  0  0  0  0  0
   32.5070   13.2300    6.0470 C   0  0  0  0  0  0  0  0  0  0  0  0
   32.8430   14.5690    6.5820 C   0  0  0  0  0  0  0  0  0  0  0  0
   32.2450   15.0040    7.5510 O   0  0  0  0  0  0  0  0  0  0  0  0
   33.9260   15.1770    6.0590 N   0  0  0  0  0  0  0  0  0  0  0  0
   34.7260   15.9040    7.0650 C   0  0  0  0  0  0  0  0  0  0  0  0
   36.2000   15.5640    6.9400 C   0  0  0  0  0  0  0  0  0  0  0  0
   36.6530   15.7410    5.6230 O   0  0  0  0  0  0  0  0  0  0  0  0
   35.9790   14.7950    4.8070 C   0  0  0  0  0  0  0  0  0  0  0  0
   34.5050   15.1130    4.7140 C   0  0  0  0  0  0  0  0  0  0  0  0
   33.3470   10.2740    7.4930 C   0  0  0  0  0  0  0  0  0  0  0  0
   32.6580    9.2460    8.1260 C   0  0  0  0  0  0  0  0  0  0  0  0
   31.5630    9.4800    8.9430 C   0  0  0  0  0  0  0  0  0  0  0  0
   30.8480    8.3410    9.6370 C   0  0  0  0  0  0  0  0  0  0  0  0
   35.1943    9.3613    3.3552 H   0  0  0  0  0  0  0  0  0  0  0  0
   35.3680    9.0043    4.3156 H   0  0  0  0  0  0  0  0  0  0  0  0
   34.2598    9.6203    3.0686 H   0  0  0  0  0  0  0  0  0  0  0  0
   33.8119   11.6725    6.3141 H   0  0  0  0  0  0  0  0  0  0  0  0
   30.9038   11.3084    8.3586 H   0  0  0  0  0  0  0  0  0  0  0  0
   31.5048   13.0044    6.3257 H   0  0  0  0  0  0  0  0  0  0  0  0
   32.6922   13.2205    5.0011 H   0  0  0  0  0  0  0  0  0  0  0  0
   34.3562   15.6747    8.0701 H   0  0  0  0  0  0  0  0  0  0  0  0
   34.5570   16.9708    6.8723 H   0  0  0  0  0  0  0  0  0  0  0  0
   36.7919   16.2021    7.5952 H   0  0  0  0  0  0  0  0  0  0  0  0
   36.3752   14.5258    7.2279 H   0  0  0  0  0  0  0  0  0  0  0  0
   36.1352   13.8099    5.2364 H   0  0  0  0  0  0  0  0  0  0  0  0
   36.4391   14.8199    3.8214 H   0  0  0  0  0  0  0  0  0  0  0  0
   33.9745   14.3172    4.1835 H   0  0  0  0  0  0  0  0  0  0  0  0
   34.3491   16.0584    4.1936 H   0  0  0  0  0  0  0  0  0  0  0  0
   34.1948   10.0341    6.8773 H   0  0  0  0  0  0  0  0  0  0  0  0
   33.0083    8.2156    7.9553 H   0  0  0  0  0  0  0  0  0  0  0  0
   30.2678    7.7412    8.9297 H   0  0  0  0  0  0  0  0  0  0  0  0
   30.1543    8.7335   10.3852 H   0  0  0  0  0  0  0  0  0  0  0  0
   29.7670    8.4389    9.5055 H   0  0  0  0  0  0  0  0  0  0  0  0
  1  2  1  0
  2  3  2  0
  2  4  1  0
  4  5  1  0
  5  6  4  0
  6  7  4  0
  7  8  1  0
  8  9  1  0
  9 10  1  0
 10 11  2  0
 10 12  1  0
 12 13  1  0
 13 14  1  0
 14 15  1  0
 15 16  1  0
 16 17  1  0
  7 18  4  0
 18 19  4  0
 19 20  4  0
 20 21  1  0
 20  5  4  0
 17 12  1  0
  1 22  1  0
  1 23  1  0
  1 24  1  0
  4 25  1  0
  6 26  1  0
  9 27  1  0
  9 28  1  0
 13 29  1  0
 13 30  1  0
 14 31  1  0
 14 32  1  0
 16 33  1  0
 16 34  1  0
 17 35  1  0
 17 36  1  0
 18 37  1  0
 19 38  1  0
 21 39  1  0
 21 40  1  0
 21 41  1  0
M  END
$$$$
LIG
     RDKit          3D

 41 42  0  0  0  0  0  0  0  0999 V2000
   34.4770    9.6170    4.1420 C   0  0  0  0  0  0  0  0  0  0  0  0
   34.7220   11.0190    4.6240 C   0  0  0  0  0  0  0  0  0  0  0  0
   35.7630   11.6170    4.3630 O   0  0  0  0  0  0  0  0  0  0  0  0
   33.6960   11.5950    5.3080 N   0  0  0  0  0  0  0  0  0  0  0  0
   32.7580   10.5692    7.2498 C   0  0  0  0  0  0  0  0  0  0  0  0
   31.8380   11.8440    8.5230 C   0  0  0  0  0  0  0  0  0  0  0  0
   32.8900   11.5720    7.6690 C   0  0  0  0  0  0  0  0  0  0  0  0
   33.3940   12.4720    6.7660 O   0  0  0  0  0  0  0  0  0  0  0  0
   32.5070   13.2300    6.0470 C   0  0  0  0  0  0  0  0  0  0  0  0
   32.8430   14.5690    6.5820 C   0  0  0  0  0  0  0  0  0  0  0  0
   32.2450   15.0040    7.5510 O   0  0  0  0  0  0  0  0  0  0  0  0
   33.9260   15.1770    6.0590 N   0  0  0  0  0  0  0  0  0  0  0  0
   34.5050   15.1130    4.7140 C   0  0  0  0  0  0  0  0  0  0  0  0
   35.9790   14.7950    4.8070 C   0  0  0  0  0  0  0  0  0  0  0  0
   36.6530   15.7410    5.6230 O   0  0  0  0  0  0  0  0  0  0  0  0
   36.2000   15.5640    6.9400 C   0  0  0  0  0  0  0  0  0  0  0  0
   34.7260   15.9040    7.0650 C   0  0  0  0  0  0  0  0  0  0  0  0
   33.3470   10.2740    7.4930 C   0  0  0  0  0  0  0  0  0  0  0  0
   32.6580    9.2460    8.1260 C   0  0  0  0  0  0  0  0  0  0  0  0
   31.5630    9.4800    8.9430 C   0  0  0  0  0  0  0  0  0  0  0  0
   30.8480    8.3410    9.6370 C   0  0  0  0  0  0  0  0  0  0  0  0
   34.4846    8.9009    4.9704 H   0  0  0  0  0  0  0  0  0  0  0  0
   35.2491    9.3417    3.4173 H   0  0  0  0  0  0  0  0  0  0  0  0
   33.4935    9.5633    3.6634 H   0  0  0  0  0  0  0  0  0  0  0  0
   33.6492   11.3993    6.3033 H   0  0  0  0  0  0  0  0  0  0  0  0
   30.9048   12.2239    8.1198 H   0  0  0  0  0  0  0  0  0  0  0  0
   31.4981   13.0024    6.3157 H   0  0  0  0  0  0  0  0  0  0  0  0
   32.6921   13.2198    4.9970 H   0  0  0  0  0  0  0  0  0  0  0  0
   33.9694   14.3186    4.1867 H   0  0  0  0  0  0  0  0  0  0  0  0
   34.3403   16.0544    4.1865 H   0  0  0  0  0  0  0  0  0  0  0  0
   36.4392   14.8185    3.8210 H   0  0  0  0  0  0  0  0  0  0  0  0
   36.1344   13.8098    5.2378 H   0  0  0  0  0  0  0  0  0  0  0  0
   36.7920   16.2016    7.5953 H   0  0  0  0  0  0  0  0  0  0  0  0
   36.3758   14.5262    7.2276 H   0  0  0  0  0  0  0  0  0  0  0  0
   34.3616   15.6701    8.0693 H   0  0  0  0  0  0  0  0  0  0  0  0
   34.5641   16.9716    6.8732 H   0  0  0  0  0  0  0  0  0  0  0  0
   34.2107   10.0684    6.8909 H   0  0  0  0  0  0  0  0  0  0  0  0
   33.0141    8.2153    7.9580 H   0  0  0  0  0  0  0  0  0  0  0  0
   29.9549    8.0578    9.0731 H   0  0  0  0  0  0  0  0  0  0  0  0
   30.5695    8.6354   10.6526 H   0  0  0  0  0  0  0  0  0  0  0  0
   31.4844    7.4545    9.7126 H   0  0  0  0  0  0  0  0  0  0  0  0
  1  2  1  0
  2  3  2  0
  2  4  1  0
  4  5  1  0
  5  6  4  0
  6  7  4  0
  7  8  1  0
  8  9  1  0
  9 10  1  0
 10 11  2  0
 10 12  1  0
 12 13  1  0
 13 14  1  0
 14 15  1  0
 15 16  1  0
 16 17  1  0
  7 18  4  0
 18 19  4  0
 19 20  4  0
 20 21  1  0
 20  5  4  0
 17 12  1  0
  1 22  1  0
  1 23  1  0
  1 24  1  0
  4 25  1  0
  6 26  1  0
  9 27  1  0
  9 28  1  0
 13 29  1  0
 13 30  1  0
 14 31  1  0
 14 32  1  0
 16 33  1  0
 16 34  1  0
 17 35  1  0
 17 36  1  0
 18 37  1  0
 19 38  1  0
 21 39  1  0
 21 40  1  0
 21 41  1  0
M  END
$$$$
