LIG
     RDKit          3D

 28 28  0  0  0  0  0  0  0  0999 V2000
   32.8671    9.2994    6.2406 C   0  0  0  0  0  0  0  0  0  0  0  0
   33.1271   10.6381    6.0098 C   0  0  0  0  0  0  0  0  0  0  0  0
   32.4513   11.6028    6.7594 C   0  0  0  0  0  0  0  0  0  0  0  0
   32.9837   12.9135    6.6961 N   0  0  0  0  0  0  0  0  0  0  0  0
   33.7761   13.3475    7.7631 C   0  0  0  0  0  0  0  0  0  0  0  0
   33.7364   12.8952    8.9077 O   0  0  0  0  0  0  0  0  0  0  0  0
   34.7889   14.4336    7.3659 C   0  0  0  0  0  0  0  0  0  0  0  0
   34.7151   14.8151    5.9970 O   0  0  0  0  0  0  0  0  0  0  0  0
   31.4208   11.2159    7.6487 C   0  0  0  0  0  0  0  0  0  0  0  0
   30.5183   12.1105    8.2586 N   0  0  0  0  0  0  0  0  0  0  0  0
   29.7233   12.9065    7.4458 C   0  0  0  0  0  0  0  0  0  0  0  0
   29.9121   13.0877    6.2425 O   0  0  0  0  0  0  0  0  0  0  0  0
   28.5217   13.4795    8.1541 C   0  0  0  0  0  0  0  0  0  0  0  0
   28.5618   14.9261    8.0722 C   0  0  0  0  0  0  0  0  0  0  0  0
   28.6293   16.0811    8.0367 N   0  0  0  0  0  0  0  0  0  0  0  0
   31.1906    9.8709    7.9015 C   0  0  0  0  0  0  0  0  0  0  0  0
   31.9283    8.9393    7.2067 C   0  0  0  0  0  0  0  0  0  0  0  0
   31.7484    7.6558    7.4900 F   0  0  0  0  0  0  0  0  0  0  0  0
   33.4321    8.5358    5.7207 H   0  0  0  0  0  0  0  0  0  0  0  0
   33.9205   10.9167    5.3222 H   0  0  0  0  0  0  0  0  0  0  0  0
   33.4374   13.1748    5.8218 H   0  0  0  0  0  0  0  0  0  0  0  0
   34.6007   15.3023    7.9977 H   0  0  0  0  0  0  0  0  0  0  0  0
   35.7959   14.0540    7.5596 H   0  0  0  0  0  0  0  0  0  0  0  0
   34.9462   15.7709    5.9507 H   0  0  0  0  0  0  0  0  0  0  0  0
   30.0434   11.7637    9.0962 H   0  0  0  0  0  0  0  0  0  0  0  0
   27.6345   13.0793    7.6554 H   0  0  0  0  0  0  0  0  0  0  0  0
   28.4826   13.1665    9.1999 H   0  0  0  0  0  0  0  0  0  0  0  0
   30.4337    9.5241    8.5973 H   0  0  0  0  0  0  0  0  0  0  0  0
  1  2  2  0
  2  3  1  0
  3  4  1  0
  4  5  1  0
  5  6  2  0
  5  7  1  0
  7  8  1  0
  3  9  2  0
  9 10  1  0
 10 11  1  0
 11 12  2  0
 11 13  1  0
 13 14  1  0
 14 15  3  0
  9 16  1  0
 16 17  2  0
 17 18  1  0
 17  1  1  0
  1 19  1  0
  2 20  1  0
  4 21  1  0
  7 22  1  0
  7 23  1  0
  8 24  1  0
 10 25  1  0
 13 26  1  0
 13 27  1  0
 16 28  1  0
M  END
