LIG
     RDKit          3D

 45 46  0  0  0  0  0  0  0  0999 V2000
   30.7668   15.5458   11.3237 C   0  0  0  0  0  0  0  0  0  0  0  0
   29.8834   14.8610   10.3972 N   0  0  0  0  0  0  0  0  0  0  0  0
   28.5260   14.6286   10.8274 C   0  0  0  0  0  0  0  0  0  0  0  0
   30.4892   14.0108    9.4769 C   0  0  0  0  0  0  0  0  0  0  0  0
   31.7197   13.9125    9.4507 O   0  0  0  0  0  0  0  0  0  0  0  0
   29.5931   13.2631    8.4642 C   0  0  0  0  0  0  0  0  0  0  0  0
   29.6428   11.8490    8.5144 O   0  0  0  0  0  0  0  0  0  0  0  0
   30.7093   11.1968    7.9753 C   0  0  0  0  0  0  0  0  0  0  0  0
   30.6963    9.8065    8.0822 C   0  0  0  0  0  0  0  0  0  0  0  0
   31.6716    9.0390    7.4494 C   0  0  0  0  0  0  0  0  0  0  0  0
   32.6707    9.6574    6.7063 C   0  0  0  0  0  0  0  0  0  0  0  0
   32.7254   11.0417    6.6701 C   0  0  0  0  0  0  0  0  0  0  0  0
   33.7939   11.6254    6.0599 O   0  0  0  0  0  0  0  0  0  0  0  0
   33.4188   12.3588    4.9086 C   0  0  0  0  0  0  0  0  0  0  0  0
   33.1676   13.8198    5.2122 C   0  0  0  0  0  0  0  0  0  0  0  0
   32.0259   14.2494    5.3669 O   0  0  0  0  0  0  0  0  0  0  0  0
   34.2731   14.6286    5.3225 N   0  0  0  0  0  0  0  0  0  0  0  0
   34.9472   14.6848    6.6201 C   0  0  0  0  0  0  0  0  0  0  0  0
   36.2348   13.8671    6.5997 C   0  0  0  0  0  0  0  0  0  0  0  0
   37.1080   14.3474    5.5630 O   0  0  0  0  0  0  0  0  0  0  0  0
   36.5003   14.1379    4.2827 C   0  0  0  0  0  0  0  0  0  0  0  0
   35.1454   14.8439    4.1665 C   0  0  0  0  0  0  0  0  0  0  0  0
   31.7640   11.8076    7.3168 C   0  0  0  0  0  0  0  0  0  0  0  0
   30.9631   14.8723   12.1498 H   0  0  0  0  0  0  0  0  0  0  0  0
   31.7126   15.8201   10.8495 H   0  0  0  0  0  0  0  0  0  0  0  0
   30.3101   16.4491   11.7220 H   0  0  0  0  0  0  0  0  0  0  0  0
   28.2613   13.5732   10.7942 H   0  0  0  0  0  0  0  0  0  0  0  0
   28.4036   14.9718   11.8558 H   0  0  0  0  0  0  0  0  0  0  0  0
   27.8539   15.1637   10.1527 H   0  0  0  0  0  0  0  0  0  0  0  0
   29.8227   13.6385    7.4587 H   0  0  0  0  0  0  0  0  0  0  0  0
   28.5448   13.5389    8.6031 H   0  0  0  0  0  0  0  0  0  0  0  0
   29.9039    9.3031    8.6276 H   0  0  0  0  0  0  0  0  0  0  0  0
   31.6342    7.9571    7.5325 H   0  0  0  0  0  0  0  0  0  0  0  0
   33.4265    9.0583    6.2050 H   0  0  0  0  0  0  0  0  0  0  0  0
   34.2361   12.2716    4.1872 H   0  0  0  0  0  0  0  0  0  0  0  0
   32.5497   11.9363    4.3981 H   0  0  0  0  0  0  0  0  0  0  0  0
   34.2794   14.3214    7.4081 H   0  0  0  0  0  0  0  0  0  0  0  0
   35.1829   15.7302    6.8102 H   0  0  0  0  0  0  0  0  0  0  0  0
   36.7504   13.9351    7.5611 H   0  0  0  0  0  0  0  0  0  0  0  0
   36.0391   12.8103    6.4089 H   0  0  0  0  0  0  0  0  0  0  0  0
   37.1849   14.5193    3.5183 H   0  0  0  0  0  0  0  0  0  0  0  0
   36.4006   13.0594    4.1165 H   0  0  0  0  0  0  0  0  0  0  0  0
   34.6303   14.5338    3.2503 H   0  0  0  0  0  0  0  0  0  0  0  0
   35.3210   15.9148    4.0835 H   0  0  0  0  0  0  0  0  0  0  0  0
   31.8630   12.8817    7.2977 H   0  0  0  0  0  0  0  0  0  0  0  0
  1  2  1  0
  2  3  1  0
  2  4  1  0
  4  5  2  0
  4  6  1  0
  6  7  1  0
  7  8  1  0
  8  9  2  0
  9 10  1  0
 10 11  2  0
 11 12  1  0
 12 13  1  0
 13 14  1  0
 14 15  1  0
 15 16  2  0
 15 17  1  0
 17 18  1  0
 18 19  1  0
 19 20  1  0
 20 21  1  0
 21 22  1  0
 12 23  2  0
 23  8  1  0
 22 17  1  0
  1 24  1  0
  1 25  1  0
  1 26  1  0
  3 27  1  0
  3 28  1  0
  3 29  1  0
  6 30  1  0
  6 31  1  0
  9 32  1  0
 10 33  1  0
 11 34  1  0
 14 35  1  0
 14 36  1  0
 18 37  1  0
 18 38  1  0
 19 39  1  0
 19 40  1  0
 21 41  1  0
 21 42  1  0
 22 43  1  0
 22 44  1  0
 23 45  1  0
M  END
