LIG
     RDKit          3D

 45 47  0  0  0  0  0  0  0  0999 V2000
   31.3500    8.4840    7.7738 C   0  0  0  0  0  0  0  0  0  0  0  0
   31.8400    9.7996    7.2625 C   0  0  0  0  0  0  0  0  0  0  0  0
   32.6834    9.9624    6.1500 C   0  0  0  0  0  0  0  0  0  0  0  0
   33.1166   11.2477    5.8024 C   0  0  0  0  0  0  0  0  0  0  0  0
   33.6470   11.5474    4.5338 N   0  0  0  0  0  0  0  0  0  0  0  0
   33.4704   12.8085    3.9442 C   0  0  0  0  0  0  0  0  0  0  0  0
   32.9544   13.7976    4.4704 O   0  0  0  0  0  0  0  0  0  0  0  0
   33.8011   12.8149    2.4562 C   0  0  0  0  0  0  0  0  0  0  0  0
   33.8007   14.2194    1.8721 C   0  0  0  0  0  0  0  0  0  0  0  0
   34.7212   14.0583    0.6945 C   0  0  0  0  0  0  0  0  0  0  0  0
   35.7530   13.0978    1.2450 C   0  0  0  0  0  0  0  0  0  0  0  0
   35.0614   12.2205    2.1468 O   0  0  0  0  0  0  0  0  0  0  0  0
   32.8984   12.2927    6.6773 C   0  0  0  0  0  0  0  0  0  0  0  0
   31.9861   12.1566    7.6859 C   0  0  0  0  0  0  0  0  0  0  0  0
   31.6836   13.3313    8.2914 O   0  0  0  0  0  0  0  0  0  0  0  0
   30.3422   13.3832    8.6597 C   0  0  0  0  0  0  0  0  0  0  0  0
   29.3462   13.2622    7.5059 C   0  0  0  0  0  0  0  0  0  0  0  0
   28.1242   13.8145    8.1636 C   0  0  0  0  0  0  0  0  0  0  0  0
   28.6355   14.9153    8.9382 N   0  0  0  0  0  0  0  0  0  0  0  0
   28.2894   16.2179    8.5118 C   0  0  0  0  0  0  0  0  0  0  0  0
   29.9849   14.7153    9.2550 C   0  0  0  0  0  0  0  0  0  0  0  0
   30.7229   15.5018    9.8298 O   0  0  0  0  0  0  0  0  0  0  0  0
   31.4302   10.9202    7.9705 C   0  0  0  0  0  0  0  0  0  0  0  0
   31.6899    8.3180    8.7986 H   0  0  0  0  0  0  0  0  0  0  0  0
   30.2580    8.4515    7.7724 H   0  0  0  0  0  0  0  0  0  0  0  0
   31.7506    7.6798    7.1685 H   0  0  0  0  0  0  0  0  0  0  0  0
   32.9543    9.1035    5.5435 H   0  0  0  0  0  0  0  0  0  0  0  0
   33.9504   10.7886    3.9336 H   0  0  0  0  0  0  0  0  0  0  0  0
   33.0323   12.2127    1.9545 H   0  0  0  0  0  0  0  0  0  0  0  0
   34.2262   14.9473    2.5741 H   0  0  0  0  0  0  0  0  0  0  0  0
   32.7996   14.5641    1.5967 H   0  0  0  0  0  0  0  0  0  0  0  0
   35.1559   14.9971    0.3421 H   0  0  0  0  0  0  0  0  0  0  0  0
   34.1818   13.5925   -0.1387 H   0  0  0  0  0  0  0  0  0  0  0  0
   36.2411   12.5104    0.4623 H   0  0  0  0  0  0  0  0  0  0  0  0
   36.5229   13.6268    1.8172 H   0  0  0  0  0  0  0  0  0  0  0  0
   33.3582   13.2666    6.5370 H   0  0  0  0  0  0  0  0  0  0  0  0
   30.1363   12.6627    9.4245 H   0  0  0  0  0  0  0  0  0  0  0  0
   29.1898   12.2404    7.1506 H   0  0  0  0  0  0  0  0  0  0  0  0
   29.6595   13.8687    6.6478 H   0  0  0  0  0  0  0  0  0  0  0  0
   27.3450   14.1133    7.4594 H   0  0  0  0  0  0  0  0  0  0  0  0
   27.7210   13.0850    8.8672 H   0  0  0  0  0  0  0  0  0  0  0  0
   29.0348   16.9715    8.7329 H   0  0  0  0  0  0  0  0  0  0  0  0
   28.2203   16.2010    7.4236 H   0  0  0  0  0  0  0  0  0  0  0  0
   27.3456   16.4269    9.0107 H   0  0  0  0  0  0  0  0  0  0  0  0
   30.7240   10.7753    8.7822 H   0  0  0  0  0  0  0  0  0  0  0  0
  1  2  1  0
  2  3  2  0
  3  4  1  0
  4  5  1  0
  5  6  1  0
  6  7  2  0
  6  8  1  0
  8  9  1  0
  9 10  1  0
 10 11  1  0
 11 12  1  0
  4 13  2  0
 13 14  1  0
 14 15  1  0
 15 16  1  0
 16 17  1  0
 17 18  1  0
 18 19  1  0
 19 20  1  0
 19 21  1  0
 21 22  2  0
 14 23  2  0
 23  2  1  0
 12  8  1  0
 21 16  1  0
  1 24  1  0
  1 25  1  0
  1 26  1  0
  3 27  1  0
  5 28  1  0
  8 29  1  0
  9 30  1  0
  9 31  1  0
 10 32  1  0
 10 33  1  0
 11 34  1  0
 11 35  1  0
 13 36  1  0
 16 37  1  0
 17 38  1  0
 17 39  1  0
 18 40  1  0
 18 41  1  0
 20 42  1  0
 20 43  1  0
 20 44  1  0
 23 45  1  0
M  END
