LIG
     RDKit          3D

 37 37  0  0  0  0  0  0  0  0999 V2000
   30.1570    8.4110    8.0350 C   0  0  0  0  0  0  0  0  0  0  0  0
   31.0170    9.5590    7.5720 C   0  0  0  0  0  0  0  0  0  0  0  0
   32.1560    9.3390    6.8090 C   0  0  0  0  0  0  0  0  0  0  0  0
   33.0110   10.3720    6.4380 C   0  0  0  0  0  0  0  0  0  0  0  0
   32.7080   11.6650    6.8730 C   0  0  0  0  0  0  0  0  0  0  0  0
   33.6520   12.7090    6.6590 N   0  0  0  0  0  0  0  0  0  0  0  0
   34.4250   13.2280    7.6390 C   0  0  0  0  0  0  0  0  0  0  0  0
   34.9120   12.5690    8.5560 O   0  0  0  0  0  0  0  0  0  0  0  0
   34.6680   14.7180    7.5670 C   0  0  0  0  0  0  0  0  0  0  0  0
   35.0470   15.1300    6.2680 O   0  0  0  0  0  0  0  0  0  0  0  0
   33.9275   15.5554    5.4926 C   0  0  0  0  0  0  0  0  0  0  0  0
   32.9098   14.4621    5.1245 C   0  0  0  0  0  0  0  0  0  0  0  0
   31.7511   14.5476    5.5378 O   0  0  0  0  0  0  0  0  0  0  0  0
   33.3472   13.4065    4.3295 N   0  0  0  0  0  0  0  0  0  0  0  0
   32.4402   12.2923    4.1067 C   0  0  0  0  0  0  0  0  0  0  0  0
   34.7449   13.1687    4.0035 C   0  0  0  0  0  0  0  0  0  0  0  0
   31.5450   11.9340    7.6020 C   0  0  0  0  0  0  0  0  0  0  0  0
   30.7220   10.8640    7.9390 C   0  0  0  0  0  0  0  0  0  0  0  0
   29.4280   11.6110    9.1450 O   0  0  0  0  0  0  0  0  0  0  0  0
   29.1257    8.7474    8.1741 H   0  0  0  0  0  0  0  0  0  0  0  0
   29.7016    8.6463    9.0013 H   0  0  0  0  0  0  0  0  0  0  0  0
   30.5115    8.0080    8.9883 H   0  0  0  0  0  0  0  0  0  0  0  0
   32.4006    8.3150    6.4808 H   0  0  0  0  0  0  0  0  0  0  0  0
   33.8719   10.1634    5.8377 H   0  0  0  0  0  0  0  0  0  0  0  0
   33.7548   13.0771    5.7533 H   0  0  0  0  0  0  0  0  0  0  0  0
   35.4660   14.9657    8.2840 H   0  0  0  0  0  0  0  0  0  0  0  0
   33.7358   15.2234    7.8620 H   0  0  0  0  0  0  0  0  0  0  0  0
   34.2976   15.9997    4.5623 H   0  0  0  0  0  0  0  0  0  0  0  0
   33.4033   16.3590    6.0246 H   0  0  0  0  0  0  0  0  0  0  0  0
   32.6919   11.4912    4.8084 H   0  0  0  0  0  0  0  0  0  0  0  0
   32.5581   11.9326    3.0802 H   0  0  0  0  0  0  0  0  0  0  0  0
   31.3962   12.5803    4.2572 H   0  0  0  0  0  0  0  0  0  0  0  0
   35.1943   12.5774    4.8065 H   0  0  0  0  0  0  0  0  0  0  0  0
   35.2976   14.1026    3.8891 H   0  0  0  0  0  0  0  0  0  0  0  0
   34.8104   12.6180    3.0604 H   0  0  0  0  0  0  0  0  0  0  0  0
   31.2861   12.9295    7.8973 H   0  0  0  0  0  0  0  0  0  0  0  0
   29.6713   12.4726    8.9215 H   0  0  0  0  0  0  0  0  0  0  0  0
  1  2  1  0
  2  3  4  0
  3  4  4  0
  4  5  4  0
  5  6  1  0
  6  7  1  0
  7  8  2  0
  7  9  1  0
  9 10  1  0
 10 11  1  0
 11 12  1  0
 12 13  2  0
 12 14  1  0
 14 15  1  0
 14 16  1  0
  5 17  4  0
 17 18  4  0
 18 19  1  0
 18  2  4  0
  1 20  1  0
  1 21  1  0
  1 22  1  0
  3 23  1  0
  4 24  1  0
  6 25  1  0
  9 26  1  0
  9 27  1  0
 11 28  1  0
 11 29  1  0
 15 30  1  0
 15 31  1  0
 15 32  1  0
 16 33  1  0
 16 34  1  0
 16 35  1  0
 17 36  1  0
 19 37  1  0
M  END
