LIG
     RDKit          3D

 38 39  0  0  0  0  0  0  0  0999 V2000
   28.5580   15.7160    7.2730 N   0  0  0  0  0  0  0  0  0  0  0  0
   28.5830   14.6820    7.7450 C   0  0  0  0  0  0  0  0  0  0  0  0
   28.7130   13.3600    8.3510 C   0  0  0  0  0  0  0  0  0  0  0  0
   29.7090   12.5130    7.5840 C   0  0  0  0  0  0  0  0  0  0  0  0
   29.9180   12.6920    6.3980 O   0  0  0  0  0  0  0  0  0  0  0  0
   31.4293   11.8347    8.0587 N   0  0  0  0  0  0  0  0  0  0  0  0
   32.6580    9.2460    8.1260 C   0  0  0  0  0  0  0  0  0  0  0  0
   31.5630    9.4800    8.9430 C   0  0  0  0  0  0  0  0  0  0  0  0
   31.1650   10.7950    9.1290 N   0  0  0  0  0  0  0  0  0  0  0  0
   31.8380   11.8440    8.5230 C   0  0  0  0  0  0  0  0  0  0  0  0
   32.8900   11.5720    7.6690 C   0  0  0  0  0  0  0  0  0  0  0  0
   33.3940   12.4720    6.7660 O   0  0  0  0  0  0  0  0  0  0  0  0
   32.5070   13.2300    6.0470 C   0  0  0  0  0  0  0  0  0  0  0  0
   32.8430   14.5690    6.5820 C   0  0  0  0  0  0  0  0  0  0  0  0
   32.2450   15.0040    7.5510 O   0  0  0  0  0  0  0  0  0  0  0  0
   33.9260   15.1770    6.0590 N   0  0  0  0  0  0  0  0  0  0  0  0
   34.5050   15.1130    4.7140 C   0  0  0  0  0  0  0  0  0  0  0  0
   35.9790   14.7950    4.8070 C   0  0  0  0  0  0  0  0  0  0  0  0
   36.6530   15.7410    5.6230 O   0  0  0  0  0  0  0  0  0  0  0  0
   36.2000   15.5640    6.9400 C   0  0  0  0  0  0  0  0  0  0  0  0
   34.7260   15.9040    7.0650 C   0  0  0  0  0  0  0  0  0  0  0  0
   33.3470   10.2740    7.4930 C   0  0  0  0  0  0  0  0  0  0  0  0
   29.0429   13.4351    9.3934 H   0  0  0  0  0  0  0  0  0  0  0  0
   27.7473   12.8421    8.3569 H   0  0  0  0  0  0  0  0  0  0  0  0
   32.0558   12.5790    8.3462 H   0  0  0  0  0  0  0  0  0  0  0  0
   30.9938    8.7691    9.4433 H   0  0  0  0  0  0  0  0  0  0  0  0
   31.4748   12.7972    8.7738 H   0  0  0  0  0  0  0  0  0  0  0  0
   32.6871   13.2112    4.9950 H   0  0  0  0  0  0  0  0  0  0  0  0
   31.4948   13.0047    6.3108 H   0  0  0  0  0  0  0  0  0  0  0  0
   34.3610   16.0499    4.1847 H   0  0  0  0  0  0  0  0  0  0  0  0
   33.9748   14.3181    4.1880 H   0  0  0  0  0  0  0  0  0  0  0  0
   36.4471   14.7822    3.8124 H   0  0  0  0  0  0  0  0  0  0  0  0
   36.1256   13.8022    5.2501 H   0  0  0  0  0  0  0  0  0  0  0  0
   36.8033   16.1834    7.6231 H   0  0  0  0  0  0  0  0  0  0  0  0
   36.3654   14.5152    7.2257 H   0  0  0  0  0  0  0  0  0  0  0  0
   34.3443   15.5883    8.0398 H   0  0  0  0  0  0  0  0  0  0  0  0
   34.5731   16.9793    6.9653 H   0  0  0  0  0  0  0  0  0  0  0  0
   34.2121   10.0919    6.8873 H   0  0  0  0  0  0  0  0  0  0  0  0
  1  2  3  0
  2  3  1  0
  3  4  1  0
  4  5  2  0
  4  6  1  0
  6  7  1  0
  7  8  4  0
  8  9  4  0
  9 10  4  0
 10 11  4  0
 11 12  1  0
 12 13  1  0
 13 14  1  0
 14 15  2  0
 14 16  1  0
 16 17  1  0
 17 18  1  0
 18 19  1  0
 19 20  1  0
 20 21  1  0
 11 22  4  0
 22  7  4  0
 21 16  1  0
  3 23  1  0
  3 24  1  0
  6 25  1  0
  8 26  1  0
 10 27  1  0
 13 28  1  0
 13 29  1  0
 17 30  1  0
 17 31  1  0
 18 32  1  0
 18 33  1  0
 20 34  1  0
 20 35  1  0
 21 36  1  0
 21 37  1  0
 22 38  1  0
M  END
$$$$
LIG
     RDKit          3D

 38 39  0  0  0  0  0  0  0  0999 V2000
   28.5580   15.7160    7.2730 N   0  0  0  0  0  0  0  0  0  0  0  0
   28.5830   14.6820    7.7450 C   0  0  0  0  0  0  0  0  0  0  0  0
   28.7130   13.3600    8.3510 C   0  0  0  0  0  0  0  0  0  0  0  0
   29.7090   12.5130    7.5840 C   0  0  0  0  0  0  0  0  0  0  0  0
   29.9180   12.6920    6.3980 O   0  0  0  0  0  0  0  0  0  0  0  0
   30.5642   11.0997    8.4301 N   0  0  0  0  0  0  0  0  0  0  0  0
   32.6580    9.2460    8.1260 C   0  0  0  0  0  0  0  0  0  0  0  0
   31.5630    9.4800    8.9430 C   0  0  0  0  0  0  0  0  0  0  0  0
   31.1650   10.7950    9.1290 N   0  0  0  0  0  0  0  0  0  0  0  0
   31.8380   11.8440    8.5230 C   0  0  0  0  0  0  0  0  0  0  0  0
   32.8900   11.5720    7.6690 C   0  0  0  0  0  0  0  0  0  0  0  0
   33.3940   12.4720    6.7660 O   0  0  0  0  0  0  0  0  0  0  0  0
   32.5070   13.2300    6.0470 C   0  0  0  0  0  0  0  0  0  0  0  0
   32.8430   14.5690    6.5820 C   0  0  0  0  0  0  0  0  0  0  0  0
   32.2450   15.0040    7.5510 O   0  0  0  0  0  0  0  0  0  0  0  0
   33.9260   15.1770    6.0590 N   0  0  0  0  0  0  0  0  0  0  0  0
   34.7260   15.9040    7.0650 C   0  0  0  0  0  0  0  0  0  0  0  0
   36.2000   15.5640    6.9400 C   0  0  0  0  0  0  0  0  0  0  0  0
   36.6530   15.7410    5.6230 O   0  0  0  0  0  0  0  0  0  0  0  0
   35.9790   14.7950    4.8070 C   0  0  0  0  0  0  0  0  0  0  0  0
   34.5050   15.1130    4.7140 C   0  0  0  0  0  0  0  0  0  0  0  0
   33.3470   10.2740    7.4930 C   0  0  0  0  0  0  0  0  0  0  0  0
   27.7523   12.8361    8.3711 H   0  0  0  0  0  0  0  0  0  0  0  0
   29.0555   13.4485    9.3866 H   0  0  0  0  0  0  0  0  0  0  0  0
   30.0074   10.8434    9.2385 H   0  0  0  0  0  0  0  0  0  0  0  0
   31.0043    8.7623    9.4369 H   0  0  0  0  0  0  0  0  0  0  0  0
   31.4780   12.7963    8.7742 H   0  0  0  0  0  0  0  0  0  0  0  0
   32.7416   13.2047    5.0099 H   0  0  0  0  0  0  0  0  0  0  0  0
   31.5036   13.0007    6.3163 H   0  0  0  0  0  0  0  0  0  0  0  0
   34.3414   15.5905    8.0404 H   0  0  0  0  0  0  0  0  0  0  0  0
   34.5798   16.9796    6.9686 H   0  0  0  0  0  0  0  0  0  0  0  0
   36.3657   14.5154    7.2247 H   0  0  0  0  0  0  0  0  0  0  0  0
   36.8031   16.1836    7.6222 H   0  0  0  0  0  0  0  0  0  0  0  0
   36.4461   14.7804    3.8109 H   0  0  0  0  0  0  0  0  0  0  0  0
   36.1249   13.8016    5.2505 H   0  0  0  0  0  0  0  0  0  0  0  0
   34.3488   16.0498    4.1824 H   0  0  0  0  0  0  0  0  0  0  0  0
   33.9759   14.3154    4.1903 H   0  0  0  0  0  0  0  0  0  0  0  0
   34.2097   10.1056    6.8791 H   0  0  0  0  0  0  0  0  0  0  0  0
  1  2  3  0
  2  3  1  0
  3  4  1  0
  4  5  2  0
  4  6  1  0
  6  7  1  0
  7  8  4  0
  8  9  4  0
  9 10  4  0
 10 11  4  0
 11 12  1  0
 12 13  1  0
 13 14  1  0
 14 15  2  0
 14 16  1  0
 16 17  1  0
 17 18  1  0
 18 19  1  0
 19 20  1  0
 20 21  1  0
 11 22  4  0
 22  7  4  0
 21 16  1  0
  3 23  1  0
  3 24  1  0
  6 25  1  0
  8 26  1  0
 10 27  1  0
 13 28  1  0
 13 29  1  0
 17 30  1  0
 17 31  1  0
 18 32  1  0
 18 33  1  0
 20 34  1  0
 20 35  1  0
 21 36  1  0
 21 37  1  0
 22 38  1  0
M  END
$$$$
LIG
     RDKit          3D

 38 39  0  0  0  0  0  0  0  0999 V2000
   28.5580   15.7160    7.2730 N   0  0  0  0  0  0  0  0  0  0  0  0
   28.5830   14.6820    7.7450 C   0  0  0  0  0  0  0  0  0  0  0  0
   28.7130   13.3600    8.3510 C   0  0  0  0  0  0  0  0  0  0  0  0
   29.7090   12.5130    7.5840 C   0  0  0  0  0  0  0  0  0  0  0  0
   29.9180   12.6920    6.3980 O   0  0  0  0  0  0  0  0  0  0  0  0
   29.9563   11.5344    8.6441 N   0  0  0  0  0  0  0  0  0  0  0  0
   31.1650   10.7950    9.1290 C   0  0  0  0  0  0  0  0  0  0  0  0
   31.5630    9.4800    8.9430 C   0  0  0  0  0  0  0  0  0  0  0  0
   32.6580    9.2460    8.1260 N   0  0  0  0  0  0  0  0  0  0  0  0
   33.3470   10.2740    7.4930 C   0  0  0  0  0  0  0  0  0  0  0  0
   32.8900   11.5720    7.6690 C   0  0  0  0  0  0  0  0  0  0  0  0
   33.3940   12.4720    6.7660 O   0  0  0  0  0  0  0  0  0  0  0  0
   32.5070   13.2300    6.0470 C   0  0  0  0  0  0  0  0  0  0  0  0
   32.8430   14.5690    6.5820 C   0  0  0  0  0  0  0  0  0  0  0  0
   32.2450   15.0040    7.5510 O   0  0  0  0  0  0  0  0  0  0  0  0
   33.9260   15.1770    6.0590 N   0  0  0  0  0  0  0  0  0  0  0  0
   34.5050   15.1130    4.7140 C   0  0  0  0  0  0  0  0  0  0  0  0
   35.9790   14.7950    4.8070 C   0  0  0  0  0  0  0  0  0  0  0  0
   36.6530   15.7410    5.6230 O   0  0  0  0  0  0  0  0  0  0  0  0
   36.2000   15.5640    6.9400 C   0  0  0  0  0  0  0  0  0  0  0  0
   34.7260   15.9040    7.0650 C   0  0  0  0  0  0  0  0  0  0  0  0
   31.8380   11.8440    8.5230 C   0  0  0  0  0  0  0  0  0  0  0  0
   29.0536   13.4459    9.3883 H   0  0  0  0  0  0  0  0  0  0  0  0
   27.7498   12.8385    8.3678 H   0  0  0  0  0  0  0  0  0  0  0  0
   29.2584   11.1583    9.2772 H   0  0  0  0  0  0  0  0  0  0  0  0
   31.1183    8.6425    9.3578 H   0  0  0  0  0  0  0  0  0  0  0  0
   34.1663    9.9755    6.9296 H   0  0  0  0  0  0  0  0  0  0  0  0
   32.7368   13.2029    5.0087 H   0  0  0  0  0  0  0  0  0  0  0  0
   31.5031   13.0017    6.3171 H   0  0  0  0  0  0  0  0  0  0  0  0
   34.3430   16.0563    4.1939 H   0  0  0  0  0  0  0  0  0  0  0  0
   33.9708   14.3190    4.1867 H   0  0  0  0  0  0  0  0  0  0  0  0
   36.4430   14.8085    3.8201 H   0  0  0  0  0  0  0  0  0  0  0  0
   36.1333   13.8089    5.2421 H   0  0  0  0  0  0  0  0  0  0  0  0
   36.3695   14.5246    7.2197 H   0  0  0  0  0  0  0  0  0  0  0  0
   36.7919   16.1972    7.5968 H   0  0  0  0  0  0  0  0  0  0  0  0
   34.3597   15.6786    8.0730 H   0  0  0  0  0  0  0  0  0  0  0  0
   34.5564   16.9715    6.8735 H   0  0  0  0  0  0  0  0  0  0  0  0
   31.5682   12.8785    8.6944 H   0  0  0  0  0  0  0  0  0  0  0  0
  1  2  3  0
  2  3  1  0
  3  4  1  0
  4  5  2  0
  4  6  1  0
  6  7  1  0
  7  8  4  0
  8  9  4  0
  9 10  4  0
 10 11  4  0
 11 12  1  0
 12 13  1  0
 13 14  1  0
 14 15  2  0
 14 16  1  0
 16 17  1  0
 17 18  1  0
 18 19  1  0
 19 20  1  0
 20 21  1  0
 11 22  4  0
 22  7  4  0
 21 16  1  0
  3 23  1  0
  3 24  1  0
  6 25  1  0
  8 26  1  0
 10 27  1  0
 13 28  1  0
 13 29  1  0
 17 30  1  0
 17 31  1  0
 18 32  1  0
 18 33  1  0
 20 34  1  0
 20 35  1  0
 21 36  1  0
 21 37  1  0
 22 38  1  0
M  END
$$$$
LIG
     RDKit          3D

 38 39  0  0  0  0  0  0  0  0999 V2000
   28.5580   15.7160    7.2730 N   0  0  0  0  0  0  0  0  0  0  0  0
   28.5830   14.6820    7.7450 C   0  0  0  0  0  0  0  0  0  0  0  0
   28.7130   13.3600    8.3510 C   0  0  0  0  0  0  0  0  0  0  0  0
   29.7090   12.5130    7.5840 C   0  0  0  0  0  0  0  0  0  0  0  0
   29.9180   12.6920    6.3980 O   0  0  0  0  0  0  0  0  0  0  0  0
   30.3770   11.5810    8.3040 N   0  0  0  0  0  0  0  0  0  0  0  0
   31.1586   11.0194    8.2270 C   0  0  0  0  0  0  0  0  0  0  0  0
   31.5630    9.4800    8.9430 C   0  0  0  0  0  0  0  0  0  0  0  0
   32.6580    9.2460    8.1260 N   0  0  0  0  0  0  0  0  0  0  0  0
   33.3470   10.2740    7.4930 C   0  0  0  0  0  0  0  0  0  0  0  0
   32.8900   11.5720    7.6690 C   0  0  0  0  0  0  0  0  0  0  0  0
   33.3940   12.4720    6.7660 O   0  0  0  0  0  0  0  0  0  0  0  0
   32.5070   13.2300    6.0470 C   0  0  0  0  0  0  0  0  0  0  0  0
   32.8430   14.5690    6.5820 C   0  0  0  0  0  0  0  0  0  0  0  0
   32.2450   15.0040    7.5510 O   0  0  0  0  0  0  0  0  0  0  0  0
   33.9260   15.1770    6.0590 N   0  0  0  0  0  0  0  0  0  0  0  0
   34.7260   15.9040    7.0650 C   0  0  0  0  0  0  0  0  0  0  0  0
   36.2000   15.5640    6.9400 C   0  0  0  0  0  0  0  0  0  0  0  0
   36.6530   15.7410    5.6230 O   0  0  0  0  0  0  0  0  0  0  0  0
   35.9790   14.7950    4.8070 C   0  0  0  0  0  0  0  0  0  0  0  0
   34.5050   15.1130    4.7140 C   0  0  0  0  0  0  0  0  0  0  0  0
   31.8380   11.8440    8.5230 C   0  0  0  0  0  0  0  0  0  0  0  0
   27.7481   12.8360    8.3577 H   0  0  0  0  0  0  0  0  0  0  0  0
   29.0304   13.4384    9.3994 H   0  0  0  0  0  0  0  0  0  0  0  0
   31.3642   11.4176    8.0923 H   0  0  0  0  0  0  0  0  0  0  0  0
   30.6869    8.9263    8.6405 H   0  0  0  0  0  0  0  0  0  0  0  0
   34.1733   10.0093    6.9213 H   0  0  0  0  0  0  0  0  0  0  0  0
   32.7387   13.2062    5.0087 H   0  0  0  0  0  0  0  0  0  0  0  0
   31.5027   13.0029    6.3173 H   0  0  0  0  0  0  0  0  0  0  0  0
   34.3593   15.6785    8.0727 H   0  0  0  0  0  0  0  0  0  0  0  0
   34.5565   16.9715    6.8735 H   0  0  0  0  0  0  0  0  0  0  0  0
   36.3694   14.5250    7.2199 H   0  0  0  0  0  0  0  0  0  0  0  0
   36.7920   16.1975    7.5965 H   0  0  0  0  0  0  0  0  0  0  0  0
   36.1335   13.8089    5.2415 H   0  0  0  0  0  0  0  0  0  0  0  0
   36.4429   14.8096    3.8204 H   0  0  0  0  0  0  0  0  0  0  0  0
   33.9709   14.3188    4.1868 H   0  0  0  0  0  0  0  0  0  0  0  0
   34.3435   16.0560    4.1930 H   0  0  0  0  0  0  0  0  0  0  0  0
   30.9872   11.1731    8.5686 H   0  0  0  0  0  0  0  0  0  0  0  0
  1  2  3  0
  2  3  1  0
  3  4  1  0
  4  5  2  0
  4  6  1  0
  6  7  1  0
  7  8  4  0
  8  9  4  0
  9 10  4  0
 10 11  4  0
 11 12  1  0
 12 13  1  0
 13 14  1  0
 14 15  2  0
 14 16  1  0
 16 17  1  0
 17 18  1  0
 18 19  1  0
 19 20  1  0
 20 21  1  0
 11 22  4  0
 22  7  4  0
 21 16  1  0
  3 23  1  0
  3 24  1  0
  6 25  1  0
  8 26  1  0
 10 27  1  0
 13 28  1  0
 13 29  1  0
 17 30  1  0
 17 31  1  0
 18 32  1  0
 18 33  1  0
 20 34  1  0
 20 35  1  0
 21 36  1  0
 21 37  1  0
 22 38  1  0
M  END
$$$$
LIG
     RDKit          3D

 38 39  0  0  0  0  0  0  0  0999 V2000
   28.5580   15.7160    7.2730 N   0  0  0  0  0  0  0  0  0  0  0  0
   28.5830   14.6820    7.7450 C   0  0  0  0  0  0  0  0  0  0  0  0
   28.7130   13.3600    8.3510 C   0  0  0  0  0  0  0  0  0  0  0  0
   29.7090   12.5130    7.5840 C   0  0  0  0  0  0  0  0  0  0  0  0
   29.9180   12.6920    6.3980 O   0  0  0  0  0  0  0  0  0  0  0  0
   30.3770   11.5810    8.3040 N   0  0  0  0  0  0  0  0  0  0  0  0
   31.1582   11.0254    8.2379 C   0  0  0  0  0  0  0  0  0  0  0  0
   31.5630    9.4800    8.9430 C   0  0  0  0  0  0  0  0  0  0  0  0
   32.6580    9.2460    8.1260 N   0  0  0  0  0  0  0  0  0  0  0  0
   33.3470   10.2740    7.4930 C   0  0  0  0  0  0  0  0  0  0  0  0
   32.8900   11.5720    7.6690 C   0  0  0  0  0  0  0  0  0  0  0  0
   33.3940   12.4720    6.7660 O   0  0  0  0  0  0  0  0  0  0  0  0
   32.5070   13.2300    6.0470 C   0  0  0  0  0  0  0  0  0  0  0  0
   32.8430   14.5690    6.5820 C   0  0  0  0  0  0  0  0  0  0  0  0
   32.2450   15.0040    7.5510 O   0  0  0  0  0  0  0  0  0  0  0  0
   33.9260   15.1770    6.0590 N   0  0  0  0  0  0  0  0  0  0  0  0
   34.5050   15.1130    4.7140 C   0  0  0  0  0  0  0  0  0  0  0  0
   35.9790   14.7950    4.8070 C   0  0  0  0  0  0  0  0  0  0  0  0
   36.6530   15.7410    5.6230 O   0  0  0  0  0  0  0  0  0  0  0  0
   36.2000   15.5640    6.9400 C   0  0  0  0  0  0  0  0  0  0  0  0
   34.7260   15.9040    7.0650 C   0  0  0  0  0  0  0  0  0  0  0  0
   31.8380   11.8440    8.5230 C   0  0  0  0  0  0  0  0  0  0  0  0
   29.0325   13.4372    9.3976 H   0  0  0  0  0  0  0  0  0  0  0  0
   27.7477   12.8356    8.3583 H   0  0  0  0  0  0  0  0  0  0  0  0
   31.3610   11.4122    8.0862 H   0  0  0  0  0  0  0  0  0  0  0  0
   31.7229   10.2930    9.6358 H   0  0  0  0  0  0  0  0  0  0  0  0
   34.1769    9.9811    6.9430 H   0  0  0  0  0  0  0  0  0  0  0  0
   32.6449   13.1715    5.0182 H   0  0  0  0  0  0  0  0  0  0  0  0
   31.5446   12.9800    6.3876 H   0  0  0  0  0  0  0  0  0  0  0  0
   33.9982   14.3691    4.1049 H   0  0  0  0  0  0  0  0  0  0  0  0
   34.3539   16.0965    4.2671 H   0  0  0  0  0  0  0  0  0  0  0  0
   36.4364   14.8216    3.8099 H   0  0  0  0  0  0  0  0  0  0  0  0
   36.1433   13.7877    5.2153 H   0  0  0  0  0  0  0  0  0  0  0  0
   36.7894   16.2172    7.6011 H   0  0  0  0  0  0  0  0  0  0  0  0
   36.3918   14.5260    7.2583 H   0  0  0  0  0  0  0  0  0  0  0  0
   34.5638   16.9680    6.8690 H   0  0  0  0  0  0  0  0  0  0  0  0
   34.3673   15.6796    8.0715 H   0  0  0  0  0  0  0  0  0  0  0  0
   31.8173   12.8131    9.0199 H   0  0  0  0  0  0  0  0  0  0  0  0
  1  2  3  0
  2  3  1  0
  3  4  1  0
  4  5  2  0
  4  6  1  0
  6  7  1  0
  7  8  4  0
  8  9  4  0
  9 10  4  0
 10 11  4  0
 11 12  1  0
 12 13  1  0
 13 14  1  0
 14 15  2  0
 14 16  1  0
 16 17  1  0
 17 18  1  0
 18 19  1  0
 19 20  1  0
 20 21  1  0
 11 22  4  0
 22  7  4  0
 21 16  1  0
  3 23  1  0
  3 24  1  0
  6 25  1  0
  8 26  1  0
 10 27  1  0
 13 28  1  0
 13 29  1  0
 17 30  1  0
 17 31  1  0
 18 32  1  0
 18 33  1  0
 20 34  1  0
 20 35  1  0
 21 36  1  0
 21 37  1  0
 22 38  1  0
M  END
$$$$
