LIG
     RDKit          3D

 44 44  0  0  0  0  0  0  0  0999 V2000
   -3.8453   -3.9208   -1.2182 C   0  0  0  0  0  0  0  0  0  0  0  0
   -3.1948   -2.5614   -1.1896 C   0  0  0  0  0  0  0  0  0  0  0  0
   -3.6027   -1.6460   -1.8960 O   0  0  0  0  0  0  0  0  0  0  0  0
   -2.1009   -2.5081   -0.3458 N   0  0  0  0  0  0  0  0  0  0  0  0
   -1.2503   -1.3835   -0.1612 C   0  0  0  0  0  0  0  0  0  0  0  0
   -1.7124   -0.0557   -0.0520 C   0  0  0  0  0  0  0  0  0  0  0  0
   -3.1819    0.3210    0.0255 C   0  0  0  0  0  0  0  0  0  0  0  0
   -3.4223    1.4442    0.9592 N   0  0  0  0  0  0  0  0  0  0  0  0
   -4.9852    2.0565    1.0149 S   0  0  0  0  0  0  0  0  0  0  0  0
   -5.0308    3.1042   -0.4246 C   0  0  0  0  0  0  0  0  0  0  0  0
   -5.9077    0.9586    0.8429 O   0  0  0  0  0  0  0  0  0  0  0  0
   -5.0285    2.9000    2.1889 O   0  0  0  0  0  0  0  0  0  0  0  0
   -0.7573    0.9788    0.0231 C   0  0  0  0  0  0  0  0  0  0  0  0
    0.6134    0.7158    0.0828 C   0  0  0  0  0  0  0  0  0  0  0  0
    1.0764   -0.5968    0.0725 C   0  0  0  0  0  0  0  0  0  0  0  0
    2.3964   -0.9504    0.1608 O   0  0  0  0  0  0  0  0  0  0  0  0
    3.3674    0.0834    0.2643 C   0  0  0  0  0  0  0  0  0  0  0  0
    4.7881   -0.4924    0.3707 C   0  0  0  0  0  0  0  0  0  0  0  0
    4.9929   -1.7076    0.3842 O   0  0  0  0  0  0  0  0  0  0  0  0
    5.8357    0.4299    0.4620 N   0  0  0  0  0  0  0  0  0  0  0  0
    5.6893    1.8571    0.2212 C   0  0  0  0  0  0  0  0  0  0  0  0
    7.1974   -0.0817    0.4501 C   0  0  0  0  0  0  0  0  0  0  0  0
    0.1401   -1.6406   -0.0452 C   0  0  0  0  0  0  0  0  0  0  0  0
    0.7698   -3.4549   -0.0931 Br  0  0  0  0  0  0  0  0  0  0  0  0
   -3.6337   -4.4826   -0.3038 H   0  0  0  0  0  0  0  0  0  0  0  0
   -4.9291   -3.7987   -1.2983 H   0  0  0  0  0  0  0  0  0  0  0  0
   -3.4720   -4.4797   -2.0801 H   0  0  0  0  0  0  0  0  0  0  0  0
   -1.6428   -3.4033   -0.1945 H   0  0  0  0  0  0  0  0  0  0  0  0
   -3.5203    0.6046   -0.9750 H   0  0  0  0  0  0  0  0  0  0  0  0
   -3.7598   -0.5272    0.4048 H   0  0  0  0  0  0  0  0  0  0  0  0
   -3.0790    1.2776    1.9063 H   0  0  0  0  0  0  0  0  0  0  0  0
   -4.9256    2.4918   -1.3211 H   0  0  0  0  0  0  0  0  0  0  0  0
   -4.2273    3.8396   -0.3521 H   0  0  0  0  0  0  0  0  0  0  0  0
   -5.9975    3.6124   -0.4370 H   0  0  0  0  0  0  0  0  0  0  0  0
   -1.0856    2.0176    0.0629 H   0  0  0  0  0  0  0  0  0  0  0  0
    1.2841    1.5654    0.1557 H   0  0  0  0  0  0  0  0  0  0  0  0
    3.1833    0.6689    1.1724 H   0  0  0  0  0  0  0  0  0  0  0  0
    3.3273    0.7083   -0.6351 H   0  0  0  0  0  0  0  0  0  0  0  0
    4.6900    2.2147    0.4740 H   0  0  0  0  0  0  0  0  0  0  0  0
    5.8802    2.0513   -0.8383 H   0  0  0  0  0  0  0  0  0  0  0  0
    6.4141    2.4035    0.8318 H   0  0  0  0  0  0  0  0  0  0  0  0
    7.2454   -1.1214    0.7848 H   0  0  0  0  0  0  0  0  0  0  0  0
    7.5849   -0.0188   -0.5712 H   0  0  0  0  0  0  0  0  0  0  0  0
    7.8164    0.5265    1.1162 H   0  0  0  0  0  0  0  0  0  0  0  0
  1  2  1  0
  2  3  2  0
  2  4  1  0
  4  5  1  0
  5  6  2  0
  6  7  1  0
  7  8  1  0
  8  9  1  0
  9 10  1  0
  9 11  2  0
  9 12  2  0
  6 13  1  0
 13 14  2  0
 14 15  1  0
 15 16  1  0
 16 17  1  0
 17 18  1  0
 18 19  2  0
 18 20  1  0
 20 21  1  0
 20 22  1  0
 15 23  2  0
 23 24  1  0
 23  5  1  0
  1 25  1  0
  1 26  1  0
  1 27  1  0
  4 28  1  0
  7 29  1  0
  7 30  1  0
  8 31  1  0
 10 32  1  0
 10 33  1  0
 10 34  1  0
 13 35  1  0
 14 36  1  0
 17 37  1  0
 17 38  1  0
 21 39  1  0
 21 40  1  0
 21 41  1  0
 22 42  1  0
 22 43  1  0
 22 44  1  0
M  END
