LIG
     RDKit          3D

 34 34  0  0  0  0  0  0  0  0999 V2000
   -4.8705   -1.3082    1.8071 C   0  0  0  0  0  0  0  0  0  0  0  0
   -4.0609   -0.8268    0.6996 N   0  0  0  0  0  0  0  0  0  0  0  0
   -4.4844   -1.2429   -0.6286 C   0  0  0  0  0  0  0  0  0  0  0  0
   -3.2014    0.2486    0.9349 C   0  0  0  0  0  0  0  0  0  0  0  0
   -3.0143    0.6987    2.0678 O   0  0  0  0  0  0  0  0  0  0  0  0
   -2.4691    0.8413   -0.2890 C   0  0  0  0  0  0  0  0  0  0  0  0
   -1.6710    1.9940   -0.0532 O   0  0  0  0  0  0  0  0  0  0  0  0
   -0.4507    1.7211    0.6147 C   0  0  0  0  0  0  0  0  0  0  0  0
    0.6694    1.0738   -0.2250 C   0  0  0  0  0  0  0  0  0  0  0  0
    0.4911    0.6926   -1.3784 O   0  0  0  0  0  0  0  0  0  0  0  0
    1.8541    0.9724    0.4879 N   0  0  0  0  0  0  0  0  0  0  0  0
    3.0846    0.4355    0.0486 C   0  0  0  0  0  0  0  0  0  0  0  0
    3.3081   -0.0869   -1.2264 C   0  0  0  0  0  0  0  0  0  0  0  0
    4.5674   -0.5956   -1.5516 C   0  0  0  0  0  0  0  0  0  0  0  0
    4.8196   -1.1147   -2.7883 O   0  0  0  0  0  0  0  0  0  0  0  0
    5.6113   -0.5914   -0.6316 C   0  0  0  0  0  0  0  0  0  0  0  0
    5.3994   -0.0674    0.6403 C   0  0  0  0  0  0  0  0  0  0  0  0
    4.1445    0.4385    0.9673 C   0  0  0  0  0  0  0  0  0  0  0  0
    3.9493    0.9468    2.1948 F   0  0  0  0  0  0  0  0  0  0  0  0
   -5.8495   -0.8218    1.7609 H   0  0  0  0  0  0  0  0  0  0  0  0
   -4.9950   -2.3924    1.7219 H   0  0  0  0  0  0  0  0  0  0  0  0
   -4.4094   -1.0876    2.7732 H   0  0  0  0  0  0  0  0  0  0  0  0
   -5.3658   -0.6607   -0.9107 H   0  0  0  0  0  0  0  0  0  0  0  0
   -4.7365   -2.3065   -0.6131 H   0  0  0  0  0  0  0  0  0  0  0  0
   -3.7021   -1.0873   -1.3726 H   0  0  0  0  0  0  0  0  0  0  0  0
   -1.8701    0.0530   -0.7551 H   0  0  0  0  0  0  0  0  0  0  0  0
   -3.2372    1.1555   -1.0039 H   0  0  0  0  0  0  0  0  0  0  0  0
   -0.6181    1.0990    1.5005 H   0  0  0  0  0  0  0  0  0  0  0  0
   -0.0691    2.6876    0.9636 H   0  0  0  0  0  0  0  0  0  0  0  0
    1.8578    1.3120    1.4464 H   0  0  0  0  0  0  0  0  0  0  0  0
    2.5219   -0.1054   -1.9718 H   0  0  0  0  0  0  0  0  0  0  0  0
    4.0160   -1.0329   -3.3293 H   0  0  0  0  0  0  0  0  0  0  0  0
    6.5830   -0.9917   -0.9085 H   0  0  0  0  0  0  0  0  0  0  0  0
    6.1979   -0.0503    1.3744 H   0  0  0  0  0  0  0  0  0  0  0  0
  1  2  1  0
  2  3  1  0
  2  4  1  0
  4  5  2  0
  4  6  1  0
  6  7  1  0
  7  8  1  0
  8  9  1  0
  9 10  2  0
  9 11  1  0
 11 12  1  0
 12 13  2  0
 13 14  1  0
 14 15  1  0
 14 16  2  0
 16 17  1  0
 17 18  2  0
 18 19  1  0
 18 12  1  0
  1 20  1  0
  1 21  1  0
  1 22  1  0
  3 23  1  0
  3 24  1  0
  3 25  1  0
  6 26  1  0
  6 27  1  0
  8 28  1  0
  8 29  1  0
 11 30  1  0
 13 31  1  0
 15 32  1  0
 16 33  1  0
 17 34  1  0
M  END
