LIG
     RDKit          3D

 48 49  0  0  0  0  0  0  0  0999 V2000
   33.1593    7.8153    7.9444 C   0  0  0  0  0  0  0  0  0  0  0  0
   32.6580    9.2460    8.1260 C   0  0  0  0  0  0  0  0  0  0  0  0
   31.5630    9.4800    8.9430 C   0  0  0  0  0  0  0  0  0  0  0  0
   31.1650   10.7950    9.1290 C   0  0  0  0  0  0  0  0  0  0  0  0
   29.4280   11.6110    9.1450 O   0  0  0  0  0  0  0  0  0  0  0  0
   28.8670   12.8920    9.4310 C   0  0  0  0  0  0  0  0  0  0  0  0
   29.9260   13.8300    9.9860 C   0  0  0  0  0  0  0  0  0  0  0  0
   31.1030   13.5010    9.9720 O   0  0  0  0  0  0  0  0  0  0  0  0
   29.5320   15.0110   10.4940 N   0  0  0  0  0  0  0  0  0  0  0  0
   28.1410   15.4480   10.5470 C   0  0  0  0  0  0  0  0  0  0  0  0
   30.5000   15.9370   11.0760 C   0  0  0  0  0  0  0  0  0  0  0  0
   31.8380   11.8440    8.5230 C   0  0  0  0  0  0  0  0  0  0  0  0
   32.8900   11.5720    7.6690 C   0  0  0  0  0  0  0  0  0  0  0  0
   33.3940   12.4720    6.7660 O   0  0  0  0  0  0  0  0  0  0  0  0
   32.5070   13.2300    6.0470 C   0  0  0  0  0  0  0  0  0  0  0  0
   32.8430   14.5690    6.5820 C   0  0  0  0  0  0  0  0  0  0  0  0
   32.2450   15.0040    7.5510 O   0  0  0  0  0  0  0  0  0  0  0  0
   33.9260   15.1770    6.0590 N   0  0  0  0  0  0  0  0  0  0  0  0
   34.5050   15.1130    4.7140 C   0  0  0  0  0  0  0  0  0  0  0  0
   35.9790   14.7950    4.8070 C   0  0  0  0  0  0  0  0  0  0  0  0
   36.6530   15.7410    5.6230 O   0  0  0  0  0  0  0  0  0  0  0  0
   36.2000   15.5640    6.9400 C   0  0  0  0  0  0  0  0  0  0  0  0
   34.7260   15.9040    7.0650 C   0  0  0  0  0  0  0  0  0  0  0  0
   33.3470   10.2740    7.4930 C   0  0  0  0  0  0  0  0  0  0  0  0
   33.6006    7.6772    6.9517 H   0  0  0  0  0  0  0  0  0  0  0  0
   33.9127    7.5850    8.7037 H   0  0  0  0  0  0  0  0  0  0  0  0
   32.3356    7.0994    8.0355 H   0  0  0  0  0  0  0  0  0  0  0  0
   31.0499    8.6554    9.3936 H   0  0  0  0  0  0  0  0  0  0  0  0
   28.0846   12.7766   10.1860 H   0  0  0  0  0  0  0  0  0  0  0  0
   28.4799   13.3269    8.5058 H   0  0  0  0  0  0  0  0  0  0  0  0
   27.7778   15.3142   11.5682 H   0  0  0  0  0  0  0  0  0  0  0  0
   27.5104   14.8755    9.8662 H   0  0  0  0  0  0  0  0  0  0  0  0
   28.0816   16.5021   10.2683 H   0  0  0  0  0  0  0  0  0  0  0  0
   30.3459   16.9296   10.6451 H   0  0  0  0  0  0  0  0  0  0  0  0
   30.0067   16.7606   11.5980 H   0  0  0  0  0  0  0  0  0  0  0  0
   30.3407   15.9739   12.1566 H   0  0  0  0  0  0  0  0  0  0  0  0
   31.5432   12.8686    8.7214 H   0  0  0  0  0  0  0  0  0  0  0  0
   32.8067   13.1934    5.0352 H   0  0  0  0  0  0  0  0  0  0  0  0
   31.4996   12.9938    6.2161 H   0  0  0  0  0  0  0  0  0  0  0  0
   34.3533   16.0960    4.2675 H   0  0  0  0  0  0  0  0  0  0  0  0
   33.9983   14.3660    4.1096 H   0  0  0  0  0  0  0  0  0  0  0  0
   36.4354   14.8223    3.8090 H   0  0  0  0  0  0  0  0  0  0  0  0
   36.1438   13.7875    5.2150 H   0  0  0  0  0  0  0  0  0  0  0  0
   36.7889   16.2171    7.6007 H   0  0  0  0  0  0  0  0  0  0  0  0
   36.3895   14.5263    7.2590 H   0  0  0  0  0  0  0  0  0  0  0  0
   34.3651   15.6769    8.0702 H   0  0  0  0  0  0  0  0  0  0  0  0
   34.5661   16.9679    6.8701 H   0  0  0  0  0  0  0  0  0  0  0  0
   34.1971   10.0679    6.8622 H   0  0  0  0  0  0  0  0  0  0  0  0
  1  2  1  0
  2  3  4  0
  3  4  4  0
  4  5  1  0
  5  6  1  0
  6  7  1  0
  7  8  2  0
  7  9  1  0
  9 10  1  0
  9 11  1  0
  4 12  4  0
 12 13  4  0
 13 14  1  0
 14 15  1  0
 15 16  1  0
 16 17  2  0
 16 18  1  0
 18 19  1  0
 19 20  1  0
 20 21  1  0
 21 22  1  0
 22 23  1  0
 13 24  4  0
 24  2  4  0
 23 18  1  0
  1 25  1  0
  1 26  1  0
  1 27  1  0
  3 28  1  0
  6 29  1  0
  6 30  1  0
 10 31  1  0
 10 32  1  0
 10 33  1  0
 11 34  1  0
 11 35  1  0
 11 36  1  0
 12 37  1  0
 15 38  1  0
 15 39  1  0
 19 40  1  0
 19 41  1  0
 20 42  1  0
 20 43  1  0
 22 44  1  0
 22 45  1  0
 23 46  1  0
 23 47  1  0
 24 48  1  0
M  END
$$$$
LIG
     RDKit          3D

 48 49  0  0  0  0  0  0  0  0999 V2000
   33.0865    7.8049    7.8632 C   0  0  0  0  0  0  0  0  0  0  0  0
   32.6580    9.2460    8.1260 C   0  0  0  0  0  0  0  0  0  0  0  0
   31.5630    9.4800    8.9430 C   0  0  0  0  0  0  0  0  0  0  0  0
   31.1650   10.7950    9.1290 C   0  0  0  0  0  0  0  0  0  0  0  0
   29.4280   11.6110    9.1450 O   0  0  0  0  0  0  0  0  0  0  0  0
   28.8670   12.8920    9.4310 C   0  0  0  0  0  0  0  0  0  0  0  0
   29.9260   13.8300    9.9860 C   0  0  0  0  0  0  0  0  0  0  0  0
   31.1030   13.5010    9.9720 O   0  0  0  0  0  0  0  0  0  0  0  0
   29.5320   15.0110   10.4940 N   0  0  0  0  0  0  0  0  0  0  0  0
   30.5000   15.9370   11.0760 C   0  0  0  0  0  0  0  0  0  0  0  0
   28.1410   15.4480   10.5470 C   0  0  0  0  0  0  0  0  0  0  0  0
   31.8380   11.8440    8.5230 C   0  0  0  0  0  0  0  0  0  0  0  0
   32.8900   11.5720    7.6690 C   0  0  0  0  0  0  0  0  0  0  0  0
   33.3940   12.4720    6.7660 O   0  0  0  0  0  0  0  0  0  0  0  0
   32.5070   13.2300    6.0470 C   0  0  0  0  0  0  0  0  0  0  0  0
   32.8430   14.5690    6.5820 C   0  0  0  0  0  0  0  0  0  0  0  0
   32.2450   15.0040    7.5510 O   0  0  0  0  0  0  0  0  0  0  0  0
   33.9260   15.1770    6.0590 N   0  0  0  0  0  0  0  0  0  0  0  0
   34.7260   15.9040    7.0650 C   0  0  0  0  0  0  0  0  0  0  0  0
   36.2000   15.5640    6.9400 C   0  0  0  0  0  0  0  0  0  0  0  0
   36.6530   15.7410    5.6230 O   0  0  0  0  0  0  0  0  0  0  0  0
   35.9790   14.7950    4.8070 C   0  0  0  0  0  0  0  0  0  0  0  0
   34.5050   15.1130    4.7140 C   0  0  0  0  0  0  0  0  0  0  0  0
   33.3470   10.2740    7.4930 C   0  0  0  0  0  0  0  0  0  0  0  0
   32.5532    7.4102    6.9929 H   0  0  0  0  0  0  0  0  0  0  0  0
   34.1638    7.7441    7.6765 H   0  0  0  0  0  0  0  0  0  0  0  0
   32.8718    7.1696    8.7289 H   0  0  0  0  0  0  0  0  0  0  0  0
   31.0557    8.6570    9.4034 H   0  0  0  0  0  0  0  0  0  0  0  0
   28.4827   13.3295    8.5056 H   0  0  0  0  0  0  0  0  0  0  0  0
   28.0842   12.7773   10.1856 H   0  0  0  0  0  0  0  0  0  0  0  0
   30.0118   16.7705   11.5809 H   0  0  0  0  0  0  0  0  0  0  0  0
   30.3454   16.9222   10.6287 H   0  0  0  0  0  0  0  0  0  0  0  0
   31.1356   16.3381   10.2825 H   0  0  0  0  0  0  0  0  0  0  0  0
   27.5871   14.9419   11.3410 H   0  0  0  0  0  0  0  0  0  0  0  0
   27.4885   14.5855   10.3876 H   0  0  0  0  0  0  0  0  0  0  0  0
   27.6707   15.2253    9.5854 H   0  0  0  0  0  0  0  0  0  0  0  0
   31.5389   12.8640    8.7146 H   0  0  0  0  0  0  0  0  0  0  0  0
   32.7366   13.2034    5.0091 H   0  0  0  0  0  0  0  0  0  0  0  0
   31.5038   13.0030    6.3189 H   0  0  0  0  0  0  0  0  0  0  0  0
   34.3575   15.6689    8.0669 H   0  0  0  0  0  0  0  0  0  0  0  0
   34.5577   16.9700    6.8734 H   0  0  0  0  0  0  0  0  0  0  0  0
   36.7920   16.2039    7.5950 H   0  0  0  0  0  0  0  0  0  0  0  0
   36.3786   14.5266    7.2314 H   0  0  0  0  0  0  0  0  0  0  0  0
   36.1354   13.8097    5.2354 H   0  0  0  0  0  0  0  0  0  0  0  0
   36.4381   14.8231    3.8215 H   0  0  0  0  0  0  0  0  0  0  0  0
   33.9690   14.3186    4.1857 H   0  0  0  0  0  0  0  0  0  0  0  0
   34.3423   16.0534    4.1831 H   0  0  0  0  0  0  0  0  0  0  0  0
   34.2034   10.0448    6.8900 H   0  0  0  0  0  0  0  0  0  0  0  0
  1  2  1  0
  2  3  4  0
  3  4  4  0
  4  5  1  0
  5  6  1  0
  6  7  1  0
  7  8  2  0
  7  9  1  0
  9 10  1  0
  9 11  1  0
  4 12  4  0
 12 13  4  0
 13 14  1  0
 14 15  1  0
 15 16  1  0
 16 17  2  0
 16 18  1  0
 18 19  1  0
 19 20  1  0
 20 21  1  0
 21 22  1  0
 22 23  1  0
 13 24  4  0
 24  2  4  0
 23 18  1  0
  1 25  1  0
  1 26  1  0
  1 27  1  0
  3 28  1  0
  6 29  1  0
  6 30  1  0
 10 31  1  0
 10 32  1  0
 10 33  1  0
 11 34  1  0
 11 35  1  0
 11 36  1  0
 12 37  1  0
 15 38  1  0
 15 39  1  0
 19 40  1  0
 19 41  1  0
 20 42  1  0
 20 43  1  0
 22 44  1  0
 22 45  1  0
 23 46  1  0
 23 47  1  0
 24 48  1  0
M  END
$$$$
LIG
     RDKit          3D

 48 49  0  0  0  0  0  0  0  0999 V2000
   33.1575    7.8149    7.9518 C   0  0  0  0  0  0  0  0  0  0  0  0
   32.6580    9.2460    8.1260 C   0  0  0  0  0  0  0  0  0  0  0  0
   31.5630    9.4800    8.9430 C   0  0  0  0  0  0  0  0  0  0  0  0
   31.1650   10.7950    9.1290 C   0  0  0  0  0  0  0  0  0  0  0  0
   29.4280   11.6110    9.1450 O   0  0  0  0  0  0  0  0  0  0  0  0
   28.8670   12.8920    9.4310 C   0  0  0  0  0  0  0  0  0  0  0  0
   29.9260   13.8300    9.9860 C   0  0  0  0  0  0  0  0  0  0  0  0
   31.1030   13.5010    9.9720 O   0  0  0  0  0  0  0  0  0  0  0  0
   29.5320   15.0110   10.4940 N   0  0  0  0  0  0  0  0  0  0  0  0
   30.5000   15.9370   11.0760 C   0  0  0  0  0  0  0  0  0  0  0  0
   28.1410   15.4480   10.5470 C   0  0  0  0  0  0  0  0  0  0  0  0
   31.8380   11.8440    8.5230 C   0  0  0  0  0  0  0  0  0  0  0  0
   32.8900   11.5720    7.6690 C   0  0  0  0  0  0  0  0  0  0  0  0
   33.3940   12.4720    6.7660 O   0  0  0  0  0  0  0  0  0  0  0  0
   32.5070   13.2300    6.0470 C   0  0  0  0  0  0  0  0  0  0  0  0
   32.8430   14.5690    6.5820 C   0  0  0  0  0  0  0  0  0  0  0  0
   32.2450   15.0040    7.5510 O   0  0  0  0  0  0  0  0  0  0  0  0
   33.9260   15.1770    6.0590 N   0  0  0  0  0  0  0  0  0  0  0  0
   34.5050   15.1130    4.7140 C   0  0  0  0  0  0  0  0  0  0  0  0
   35.9790   14.7950    4.8070 C   0  0  0  0  0  0  0  0  0  0  0  0
   36.6530   15.7410    5.6230 O   0  0  0  0  0  0  0  0  0  0  0  0
   36.2000   15.5640    6.9400 C   0  0  0  0  0  0  0  0  0  0  0  0
   34.7260   15.9040    7.0650 C   0  0  0  0  0  0  0  0  0  0  0  0
   33.3470   10.2740    7.4930 C   0  0  0  0  0  0  0  0  0  0  0  0
   33.6025    7.6734    6.9613 H   0  0  0  0  0  0  0  0  0  0  0  0
   33.9087    7.5871    8.7142 H   0  0  0  0  0  0  0  0  0  0  0  0
   32.3336    7.0991    8.0416 H   0  0  0  0  0  0  0  0  0  0  0  0
   31.0407    8.6554    9.3837 H   0  0  0  0  0  0  0  0  0  0  0  0
   28.3815   13.3033    8.5674 H   0  0  0  0  0  0  0  0  0  0  0  0
   28.1480   12.7231   10.2162 H   0  0  0  0  0  0  0  0  0  0  0  0
   30.8265   16.6285   10.2952 H   0  0  0  0  0  0  0  0  0  0  0  0
   30.1209   16.9583   10.9866 H   0  0  0  0  0  0  0  0  0  0  0  0
   30.0714   16.5033   11.9029 H   0  0  0  0  0  0  0  0  0  0  0  0
   27.8447   15.9795    9.6399 H   0  0  0  0  0  0  0  0  0  0  0  0
   27.5057   14.5662   10.6671 H   0  0  0  0  0  0  0  0  0  0  0  0
   28.0094   16.1163   11.4021 H   0  0  0  0  0  0  0  0  0  0  0  0
   31.5436   12.8620    8.7232 H   0  0  0  0  0  0  0  0  0  0  0  0
   32.6359   13.1735    5.0190 H   0  0  0  0  0  0  0  0  0  0  0  0
   31.5334   12.9904    6.3514 H   0  0  0  0  0  0  0  0  0  0  0  0
   34.3424   16.0529    4.1828 H   0  0  0  0  0  0  0  0  0  0  0  0
   33.9687   14.3189    4.1859 H   0  0  0  0  0  0  0  0  0  0  0  0
   36.1351   13.8101    5.2362 H   0  0  0  0  0  0  0  0  0  0  0  0
   36.4384   14.8223    3.8217 H   0  0  0  0  0  0  0  0  0  0  0  0
   36.7918   16.2038    7.5948 H   0  0  0  0  0  0  0  0  0  0  0  0
   36.3781   14.5267    7.2312 H   0  0  0  0  0  0  0  0  0  0  0  0
   34.3698   15.6746    8.0695 H   0  0  0  0  0  0  0  0  0  0  0  0
   34.5579   16.9697    6.8720 H   0  0  0  0  0  0  0  0  0  0  0  0
   34.1994   10.0382    6.8857 H   0  0  0  0  0  0  0  0  0  0  0  0
  1  2  1  0
  2  3  4  0
  3  4  4  0
  4  5  1  0
  5  6  1  0
  6  7  1  0
  7  8  2  0
  7  9  1  0
  9 10  1  0
  9 11  1  0
  4 12  4  0
 12 13  4  0
 13 14  1  0
 14 15  1  0
 15 16  1  0
 16 17  2  0
 16 18  1  0
 18 19  1  0
 19 20  1  0
 20 21  1  0
 21 22  1  0
 22 23  1  0
 13 24  4  0
 24  2  4  0
 23 18  1  0
  1 25  1  0
  1 26  1  0
  1 27  1  0
  3 28  1  0
  6 29  1  0
  6 30  1  0
 10 31  1  0
 10 32  1  0
 10 33  1  0
 11 34  1  0
 11 35  1  0
 11 36  1  0
 12 37  1  0
 15 38  1  0
 15 39  1  0
 19 40  1  0
 19 41  1  0
 20 42  1  0
 20 43  1  0
 22 44  1  0
 22 45  1  0
 23 46  1  0
 23 47  1  0
 24 48  1  0
M  END
$$$$
