LIG
     RDKit          3D

 37 37  0  0  0  0  0  0  0  0999 V2000
   34.2271   10.0084    3.9353 C   0  0  0  0  0  0  0  0  0  0  0  0
   33.4432   10.7326    4.9761 C   0  0  0  0  0  0  0  0  0  0  0  0
   32.0467   10.6111    4.9580 C   0  0  0  0  0  0  0  0  0  0  0  0
   31.2799   11.3795    5.8179 C   0  0  0  0  0  0  0  0  0  0  0  0
   31.9124   12.1834    6.7417 C   0  0  0  0  0  0  0  0  0  0  0  0
   31.2783   13.0108    7.6041 O   0  0  0  0  0  0  0  0  0  0  0  0
   31.6188   14.3786    7.3853 C   0  0  0  0  0  0  0  0  0  0  0  0
   32.2036   14.9946    8.6597 C   0  0  0  0  0  0  0  0  0  0  0  0
   32.7001   14.2567    9.5145 O   0  0  0  0  0  0  0  0  0  0  0  0
   32.2907   16.3847    8.7687 N   0  0  0  0  0  0  0  0  0  0  0  0
   33.0592   16.9844    9.8336 C   0  0  0  0  0  0  0  0  0  0  0  0
   31.6158   17.3455    7.9104 C   0  0  0  0  0  0  0  0  0  0  0  0
   33.2667   12.1575    6.8862 C   0  0  0  0  0  0  0  0  0  0  0  0
   34.0465   11.5526    5.9397 C   0  0  0  0  0  0  0  0  0  0  0  0
   35.4048   11.9351    5.9215 N   0  0  0  0  0  0  0  0  0  0  0  0
   35.8863   12.8112    6.8928 C   0  0  0  0  0  0  0  0  0  0  0  0
   35.9842   12.5273    8.0854 O   0  0  0  0  0  0  0  0  0  0  0  0
   36.1382   14.2356    6.4038 C   0  0  0  0  0  0  0  0  0  0  0  0
   35.0988   15.1272    6.7682 O   0  0  0  0  0  0  0  0  0  0  0  0
   33.6553    9.1831    3.4972 H   0  0  0  0  0  0  0  0  0  0  0  0
   34.5107   10.6949    3.1313 H   0  0  0  0  0  0  0  0  0  0  0  0
   35.1337    9.5712    4.3669 H   0  0  0  0  0  0  0  0  0  0  0  0
   31.5505    9.9789    4.2245 H   0  0  0  0  0  0  0  0  0  0  0  0
   30.2116   11.3829    5.7018 H   0  0  0  0  0  0  0  0  0  0  0  0
   30.7477   14.8666    6.9596 H   0  0  0  0  0  0  0  0  0  0  0  0
   32.3889   14.5143    6.6114 H   0  0  0  0  0  0  0  0  0  0  0  0
   32.3958   17.3589   10.6097 H   0  0  0  0  0  0  0  0  0  0  0  0
   33.8124   16.2976   10.2210 H   0  0  0  0  0  0  0  0  0  0  0  0
   33.6144   17.8390    9.4303 H   0  0  0  0  0  0  0  0  0  0  0  0
   30.8947   17.9282    8.4919 H   0  0  0  0  0  0  0  0  0  0  0  0
   31.1551   16.9060    7.0252 H   0  0  0  0  0  0  0  0  0  0  0  0
   32.3717   18.0445    7.5333 H   0  0  0  0  0  0  0  0  0  0  0  0
   33.6861   12.7201    7.7143 H   0  0  0  0  0  0  0  0  0  0  0  0
   35.8188   11.9602    5.0001 H   0  0  0  0  0  0  0  0  0  0  0  0
   37.0831   14.5904    6.8273 H   0  0  0  0  0  0  0  0  0  0  0  0
   36.2351   14.2493    5.3140 H   0  0  0  0  0  0  0  0  0  0  0  0
   34.9781   15.0098    7.7344 H   0  0  0  0  0  0  0  0  0  0  0  0
  1  2  1  0
  2  3  2  0
  3  4  1  0
  4  5  2  0
  5  6  1  0
  6  7  1  0
  7  8  1  0
  8  9  2  0
  8 10  1  0
 10 11  1  0
 10 12  1  0
  5 13  1  0
 13 14  2  0
 14 15  1  0
 15 16  1  0
 16 17  2  0
 16 18  1  0
 18 19  1  0
 14  2  1  0
  1 20  1  0
  1 21  1  0
  1 22  1  0
  3 23  1  0
  4 24  1  0
  7 25  1  0
  7 26  1  0
 11 27  1  0
 11 28  1  0
 11 29  1  0
 12 30  1  0
 12 31  1  0
 12 32  1  0
 13 33  1  0
 15 34  1  0
 18 35  1  0
 18 36  1  0
 19 37  1  0
M  END
