LIG
     RDKit          3D

 38 39  0  0  0  0  0  0  0  0999 V2000
   29.9149    8.3719    8.5007 C   0  0  0  0  0  0  0  0  0  0  0  0
   30.9758    9.2217    7.9039 C   0  0  0  0  0  0  0  0  0  0  0  0
   31.9172    8.7309    7.0097 C   0  0  0  0  0  0  0  0  0  0  0  0
   32.8318    9.5486    6.3506 C   0  0  0  0  0  0  0  0  0  0  0  0
   32.9085   10.8748    6.7156 C   0  0  0  0  0  0  0  0  0  0  0  0
   33.9137   11.6596    6.1464 N   0  0  0  0  0  0  0  0  0  0  0  0
   34.0933   12.9836    6.3483 C   0  0  0  0  0  0  0  0  0  0  0  0
   35.2243   13.4238    6.5494 O   0  0  0  0  0  0  0  0  0  0  0  0
   32.8681   13.9046    6.3868 C   0  0  0  0  0  0  0  0  0  0  0  0
   31.5147   13.6783    5.9956 O   0  0  0  0  0  0  0  0  0  0  0  0
   30.4764   13.6147    6.9725 C   0  0  0  0  0  0  0  0  0  0  0  0
   29.1153   13.9467    6.3328 C   0  0  0  0  0  0  0  0  0  0  0  0
   28.1756   13.9446    7.5200 C   0  0  0  0  0  0  0  0  0  0  0  0
   28.9530   14.5329    8.5700 N   0  0  0  0  0  0  0  0  0  0  0  0
   28.4067   14.8157    9.8616 C   0  0  0  0  0  0  0  0  0  0  0  0
   30.3188   14.3728    8.3513 C   0  0  0  0  0  0  0  0  0  0  0  0
   31.1892   14.7859    9.1055 O   0  0  0  0  0  0  0  0  0  0  0  0
   32.1002   11.2987    7.7651 C   0  0  0  0  0  0  0  0  0  0  0  0
   32.3820   12.4037    8.5226 O   0  0  0  0  0  0  0  0  0  0  0  0
   31.0522   10.5406    8.2565 C   0  0  0  0  0  0  0  0  0  0  0  0
   28.9573    8.5989    8.0360 H   0  0  0  0  0  0  0  0  0  0  0  0
   29.8652    8.5346    9.5804 H   0  0  0  0  0  0  0  0  0  0  0  0
   30.0859    7.3199    8.3336 H   0  0  0  0  0  0  0  0  0  0  0  0
   31.9314    7.6712    6.8380 H   0  0  0  0  0  0  0  0  0  0  0  0
   33.5084    9.1101    5.6222 H   0  0  0  0  0  0  0  0  0  0  0  0
   34.7842   11.1736    5.9515 H   0  0  0  0  0  0  0  0  0  0  0  0
   32.9031   14.2692    7.4085 H   0  0  0  0  0  0  0  0  0  0  0  0
   33.1999   14.6907    5.6994 H   0  0  0  0  0  0  0  0  0  0  0  0
   30.3228   12.5689    7.1949 H   0  0  0  0  0  0  0  0  0  0  0  0
   28.8254   13.2233    5.5657 H   0  0  0  0  0  0  0  0  0  0  0  0
   29.1429   14.9278    5.8496 H   0  0  0  0  0  0  0  0  0  0  0  0
   27.9039   12.9249    7.8120 H   0  0  0  0  0  0  0  0  0  0  0  0
   27.2756   14.5292    7.3515 H   0  0  0  0  0  0  0  0  0  0  0  0
   29.1723   15.2075   10.5326 H   0  0  0  0  0  0  0  0  0  0  0  0
   27.5727   15.5057    9.7362 H   0  0  0  0  0  0  0  0  0  0  0  0
   28.0413   13.8814   10.2950 H   0  0  0  0  0  0  0  0  0  0  0  0
   33.3225   12.6411    8.4351 H   0  0  0  0  0  0  0  0  0  0  0  0
   30.3777   10.9451    8.9991 H   0  0  0  0  0  0  0  0  0  0  0  0
  1  2  1  0
  2  3  2  0
  3  4  1  0
  4  5  2  0
  5  6  1  0
  6  7  1  0
  7  8  2  0
  7  9  1  0
  9 10  1  0
 10 11  1  0
 11 12  1  0
 12 13  1  0
 13 14  1  0
 14 15  1  0
 14 16  1  0
 16 17  2  0
  5 18  1  0
 18 19  1  0
 18 20  2  0
 20  2  1  0
 16 11  1  0
  1 21  1  0
  1 22  1  0
  1 23  1  0
  3 24  1  0
  4 25  1  0
  6 26  1  0
  9 27  1  0
  9 28  1  0
 11 29  1  0
 12 30  1  0
 12 31  1  0
 13 32  1  0
 13 33  1  0
 15 34  1  0
 15 35  1  0
 15 36  1  0
 19 37  1  0
 20 38  1  0
M  END
