LIG
     RDKit          3D

 38 39  0  0  0  0  0  0  0  0999 V2000
   -3.0025    0.0592   -3.3305 C   0  0  0  0  0  0  0  0  0  0  0  0
   -1.8473    0.1583   -2.3700 C   0  0  0  0  0  0  0  0  0  0  0  0
   -0.5531    0.2767   -2.9029 C   0  0  0  0  0  0  0  0  0  0  0  0
    0.5649    0.3708   -2.0728 C   0  0  0  0  0  0  0  0  0  0  0  0
    0.4096    0.3574   -0.6925 C   0  0  0  0  0  0  0  0  0  0  0  0
    1.4801    0.4567    0.2143 N   0  0  0  0  0  0  0  0  0  0  0  0
    2.8375    0.4866   -0.0555 C   0  0  0  0  0  0  0  0  0  0  0  0
    3.3663    0.4204   -1.1603 O   0  0  0  0  0  0  0  0  0  0  0  0
    3.6623    0.6693    1.2365 C   0  0  0  0  0  0  0  0  0  0  0  0
    4.9408   -0.1530    1.2342 C   0  0  0  0  0  0  0  0  0  0  0  0
    4.5047   -1.4175    1.9326 C   0  0  0  0  0  0  0  0  0  0  0  0
    3.5457   -0.8867    2.9727 C   0  0  0  0  0  0  0  0  0  0  0  0
    2.9070    0.2605    2.3953 O   0  0  0  0  0  0  0  0  0  0  0  0
   -0.8800    0.2477   -0.1525 C   0  0  0  0  0  0  0  0  0  0  0  0
   -2.0149    0.1437   -0.9701 C   0  0  0  0  0  0  0  0  0  0  0  0
   -3.3257    0.0146   -0.4445 N   0  0  0  0  0  0  0  0  0  0  0  0
   -3.7133    0.0014    0.8879 C   0  0  0  0  0  0  0  0  0  0  0  0
   -2.9812    0.1352    1.8649 O   0  0  0  0  0  0  0  0  0  0  0  0
   -5.1995   -0.2052    1.0759 C   0  0  0  0  0  0  0  0  0  0  0  0
   -5.8778    1.0867    1.1853 C   0  0  0  0  0  0  0  0  0  0  0  0
   -6.4456    2.0982    1.2317 N   0  0  0  0  0  0  0  0  0  0  0  0
   -2.6638    0.0501   -4.3731 H   0  0  0  0  0  0  0  0  0  0  0  0
   -3.5578   -0.8705   -3.1632 H   0  0  0  0  0  0  0  0  0  0  0  0
   -3.6726    0.9184   -3.2091 H   0  0  0  0  0  0  0  0  0  0  0  0
   -0.4000    0.2982   -3.9787 H   0  0  0  0  0  0  0  0  0  0  0  0
    1.5412    0.4618   -2.5368 H   0  0  0  0  0  0  0  0  0  0  0  0
    1.2555    0.4541    1.2076 H   0  0  0  0  0  0  0  0  0  0  0  0
    3.8784    1.7404    1.3227 H   0  0  0  0  0  0  0  0  0  0  0  0
    5.3647   -0.3387    0.2441 H   0  0  0  0  0  0  0  0  0  0  0  0
    5.7051    0.3503    1.8392 H   0  0  0  0  0  0  0  0  0  0  0  0
    3.9694   -2.0638    1.2262 H   0  0  0  0  0  0  0  0  0  0  0  0
    5.3289   -1.9906    2.3640 H   0  0  0  0  0  0  0  0  0  0  0  0
    4.0748   -0.5570    3.8730 H   0  0  0  0  0  0  0  0  0  0  0  0
    2.7908   -1.6249    3.2587 H   0  0  0  0  0  0  0  0  0  0  0  0
   -0.9754    0.2387    0.9270 H   0  0  0  0  0  0  0  0  0  0  0  0
   -4.0628   -0.0533   -1.1354 H   0  0  0  0  0  0  0  0  0  0  0  0
   -5.6063   -0.7888    0.2420 H   0  0  0  0  0  0  0  0  0  0  0  0
   -5.3482   -0.8055    1.9796 H   0  0  0  0  0  0  0  0  0  0  0  0
  1  2  1  0
  2  3  2  0
  3  4  1  0
  4  5  2  0
  5  6  1  0
  6  7  1  0
  7  8  2  0
  7  9  1  0
  9 10  1  0
 10 11  1  0
 11 12  1  0
 12 13  1  0
  5 14  1  0
 14 15  2  0
 15 16  1  0
 16 17  1  0
 17 18  2  0
 17 19  1  0
 19 20  1  0
 20 21  3  0
 15  2  1  0
 13  9  1  0
  1 22  1  0
  1 23  1  0
  1 24  1  0
  3 25  1  0
  4 26  1  0
  6 27  1  0
  9 28  1  0
 10 29  1  0
 10 30  1  0
 11 31  1  0
 11 32  1  0
 12 33  1  0
 12 34  1  0
 14 35  1  0
 16 36  1  0
 19 37  1  0
 19 38  1  0
M  END
