LIG
     RDKit          3D

 34 34  0  0  0  0  0  0  0  0999 V2000
   29.7822   15.1839   11.2693 C   0  0  0  0  0  0  0  0  0  0  0  0
   29.1711   14.5758   10.0990 N   0  0  0  0  0  0  0  0  0  0  0  0
   28.1489   15.2716    9.3448 C   0  0  0  0  0  0  0  0  0  0  0  0
   30.0101   13.7080    9.4089 C   0  0  0  0  0  0  0  0  0  0  0  0
   31.2206   13.7183    9.6181 O   0  0  0  0  0  0  0  0  0  0  0  0
   29.2988   12.7776    8.4093 C   0  0  0  0  0  0  0  0  0  0  0  0
   29.7226   11.4341    8.3395 O   0  0  0  0  0  0  0  0  0  0  0  0
   30.8396   11.1620    7.6260 C   0  0  0  0  0  0  0  0  0  0  0  0
   31.1183    9.8158    7.4161 C   0  0  0  0  0  0  0  0  0  0  0  0
   32.2127    9.4428    6.6366 C   0  0  0  0  0  0  0  0  0  0  0  0
   33.0810   10.4060    6.1334 C   0  0  0  0  0  0  0  0  0  0  0  0
   32.8764   11.7285    6.4937 C   0  0  0  0  0  0  0  0  0  0  0  0
   33.8928   12.6759    6.3322 N   0  0  0  0  0  0  0  0  0  0  0  0
   34.3388   13.3957    7.4402 C   0  0  0  0  0  0  0  0  0  0  0  0
   33.9753   13.1869    8.6009 O   0  0  0  0  0  0  0  0  0  0  0  0
   35.3465   14.4817    7.1560 C   0  0  0  0  0  0  0  0  0  0  0  0
   35.7750   14.6570    5.4058 S   0  0  0  0  0  0  0  0  0  0  0  0
   31.7165   12.1155    7.1482 C   0  0  0  0  0  0  0  0  0  0  0  0
   29.0053   15.4960   11.9671 H   0  0  0  0  0  0  0  0  0  0  0  0
   30.3929   14.4480   11.7916 H   0  0  0  0  0  0  0  0  0  0  0  0
   30.4379   16.0059   10.9703 H   0  0  0  0  0  0  0  0  0  0  0  0
   27.7366   14.6744    8.5301 H   0  0  0  0  0  0  0  0  0  0  0  0
   27.3208   15.5228    9.9957 H   0  0  0  0  0  0  0  0  0  0  0  0
   28.5876   16.1518    8.8680 H   0  0  0  0  0  0  0  0  0  0  0  0
   29.2946   13.2502    7.4182 H   0  0  0  0  0  0  0  0  0  0  0  0
   28.2491   12.7083    8.7068 H   0  0  0  0  0  0  0  0  0  0  0  0
   30.4689    9.0498    7.8367 H   0  0  0  0  0  0  0  0  0  0  0  0
   32.4263    8.3907    6.4794 H   0  0  0  0  0  0  0  0  0  0  0  0
   33.9766   10.0950    5.6037 H   0  0  0  0  0  0  0  0  0  0  0  0
   34.6461   12.4687    5.6832 H   0  0  0  0  0  0  0  0  0  0  0  0
   36.2505   14.2557    7.7262 H   0  0  0  0  0  0  0  0  0  0  0  0
   34.9191   15.4212    7.5034 H   0  0  0  0  0  0  0  0  0  0  0  0
   35.6929   16.0039    5.3664 H   0  0  0  0  0  0  0  0  0  0  0  0
   31.5852   13.1705    7.3452 H   0  0  0  0  0  0  0  0  0  0  0  0
  1  2  1  0
  2  3  1  0
  2  4  1  0
  4  5  2  0
  4  6  1  0
  6  7  1  0
  7  8  1  0
  8  9  2  0
  9 10  1  0
 10 11  2  0
 11 12  1  0
 12 13  1  0
 13 14  1  0
 14 15  2  0
 14 16  1  0
 16 17  1  0
 12 18  2  0
 18  8  1  0
  1 19  1  0
  1 20  1  0
  1 21  1  0
  3 22  1  0
  3 23  1  0
  3 24  1  0
  6 25  1  0
  6 26  1  0
  9 27  1  0
 10 28  1  0
 11 29  1  0
 13 30  1  0
 16 31  1  0
 16 32  1  0
 17 33  1  0
 18 34  1  0
M  END
