LIG
     RDKit          3D

 27 27  0  0  0  0  0  0  0  0999 V2000
   28.5451   15.9904    8.1497 N   0  0  0  0  0  0  0  0  0  0  0  0
   28.5763   14.8365    8.0755 C   0  0  0  0  0  0  0  0  0  0  0  0
   28.5577   13.3888    8.0848 C   0  0  0  0  0  0  0  0  0  0  0  0
   29.8000   12.8412    7.4406 C   0  0  0  0  0  0  0  0  0  0  0  0
   30.0303   13.0280    6.2481 O   0  0  0  0  0  0  0  0  0  0  0  0
   30.5527   12.0530    8.2986 N   0  0  0  0  0  0  0  0  0  0  0  0
   31.3915   11.0640    7.7442 C   0  0  0  0  0  0  0  0  0  0  0  0
   31.0490    9.7537    8.0775 C   0  0  0  0  0  0  0  0  0  0  0  0
   31.6790    8.7397    7.4062 C   0  0  0  0  0  0  0  0  0  0  0  0
   32.5945    8.9477    6.4365 N   0  0  0  0  0  0  0  0  0  0  0  0
   32.9559   10.2229    6.1756 C   0  0  0  0  0  0  0  0  0  0  0  0
   32.4299   11.3229    6.8334 C   0  0  0  0  0  0  0  0  0  0  0  0
   33.0538   12.5877    6.6418 N   0  0  0  0  0  0  0  0  0  0  0  0
   33.7242   13.2022    7.7013 C   0  0  0  0  0  0  0  0  0  0  0  0
   33.6073   12.8835    8.8858 O   0  0  0  0  0  0  0  0  0  0  0  0
   34.7313   14.2855    7.2666 C   0  0  0  0  0  0  0  0  0  0  0  0
   34.5852   14.7170    5.9218 O   0  0  0  0  0  0  0  0  0  0  0  0
   28.4447   13.0336    9.1118 H   0  0  0  0  0  0  0  0  0  0  0  0
   27.7004   13.0044    7.5218 H   0  0  0  0  0  0  0  0  0  0  0  0
   30.0767   11.7736    9.1586 H   0  0  0  0  0  0  0  0  0  0  0  0
   30.2739    9.5093    8.7932 H   0  0  0  0  0  0  0  0  0  0  0  0
   31.4310    7.7056    7.6081 H   0  0  0  0  0  0  0  0  0  0  0  0
   33.7537   10.3214    5.4456 H   0  0  0  0  0  0  0  0  0  0  0  0
   33.5627   12.7269    5.7712 H   0  0  0  0  0  0  0  0  0  0  0  0
   35.7412   13.8844    7.3906 H   0  0  0  0  0  0  0  0  0  0  0  0
   34.6025   15.1422    7.9326 H   0  0  0  0  0  0  0  0  0  0  0  0
   34.9101   15.6446    5.8783 H   0  0  0  0  0  0  0  0  0  0  0  0
  1  2  3  0
  2  3  1  0
  3  4  1  0
  4  5  2  0
  4  6  1  0
  6  7  1  0
  7  8  2  0
  8  9  1  0
  9 10  2  0
 10 11  1  0
 11 12  2  0
 12 13  1  0
 13 14  1  0
 14 15  2  0
 14 16  1  0
 16 17  1  0
 12  7  1  0
  3 18  1  0
  3 19  1  0
  6 20  1  0
  8 21  1  0
  9 22  1  0
 11 23  1  0
 13 24  1  0
 16 25  1  0
 16 26  1  0
 17 27  1  0
M  END
