LIG
     RDKit          3D

 41 42  0  0  0  0  0  0  0  0999 V2000
   -1.6853   -2.6640    3.5535 C   0  0  0  0  0  0  0  0  0  0  0  0
   -1.6221   -1.8548    2.2909 C   0  0  0  0  0  0  0  0  0  0  0  0
   -2.7852   -1.2773    1.7692 C   0  0  0  0  0  0  0  0  0  0  0  0
   -2.7799   -0.5640    0.5539 C   0  0  0  0  0  0  0  0  0  0  0  0
   -4.1093   -0.0884    0.0385 C   0  0  0  0  0  0  0  0  0  0  0  0
   -1.5572   -0.3827   -0.1127 C   0  0  0  0  0  0  0  0  0  0  0  0
   -1.3827    0.3317   -1.3241 N   0  0  0  0  0  0  0  0  0  0  0  0
   -1.9954    1.5181   -1.6801 C   0  0  0  0  0  0  0  0  0  0  0  0
   -2.7530    2.1764   -0.9722 O   0  0  0  0  0  0  0  0  0  0  0  0
   -1.5732    2.0020   -3.0616 C   0  0  0  0  0  0  0  0  0  0  0  0
   -3.0032    2.6309   -3.9850 S   0  0  0  0  0  0  0  0  0  0  0  0
   -0.3861   -0.9852    0.4021 C   0  0  0  0  0  0  0  0  0  0  0  0
    0.7576   -0.7904   -0.3399 O   0  0  0  0  0  0  0  0  0  0  0  0
    1.9735   -0.6610    0.3811 C   0  0  0  0  0  0  0  0  0  0  0  0
    2.0281    0.5982    1.2535 C   0  0  0  0  0  0  0  0  0  0  0  0
    3.5011    0.9476    1.2805 C   0  0  0  0  0  0  0  0  0  0  0  0
    3.9468    0.5702   -0.0346 N   0  0  0  0  0  0  0  0  0  0  0  0
    5.2711    0.8832   -0.5157 C   0  0  0  0  0  0  0  0  0  0  0  0
    3.1401   -0.4206   -0.5854 C   0  0  0  0  0  0  0  0  0  0  0  0
    3.3400   -1.0116   -1.6357 O   0  0  0  0  0  0  0  0  0  0  0  0
   -0.4251   -1.7308    1.5813 C   0  0  0  0  0  0  0  0  0  0  0  0
   -0.7125   -2.6846    4.0548 H   0  0  0  0  0  0  0  0  0  0  0  0
   -1.9867   -3.6913    3.3258 H   0  0  0  0  0  0  0  0  0  0  0  0
   -2.4024   -2.2291    4.2577 H   0  0  0  0  0  0  0  0  0  0  0  0
   -3.7266   -1.4108    2.3027 H   0  0  0  0  0  0  0  0  0  0  0  0
   -4.9058   -0.7822    0.3335 H   0  0  0  0  0  0  0  0  0  0  0  0
   -4.1330   -0.0568   -1.0547 H   0  0  0  0  0  0  0  0  0  0  0  0
   -4.3510    0.8939    0.4526 H   0  0  0  0  0  0  0  0  0  0  0  0
   -0.4849    0.1446   -1.7639 H   0  0  0  0  0  0  0  0  0  0  0  0
   -0.8372    2.8012   -2.9321 H   0  0  0  0  0  0  0  0  0  0  0  0
   -1.1126    1.1968   -3.6420 H   0  0  0  0  0  0  0  0  0  0  0  0
   -3.5421    3.2982   -2.9495 H   0  0  0  0  0  0  0  0  0  0  0  0
    2.2261   -1.5723    0.9385 H   0  0  0  0  0  0  0  0  0  0  0  0
    1.6195    0.4416    2.2568 H   0  0  0  0  0  0  0  0  0  0  0  0
    1.4504    1.4075    0.7873 H   0  0  0  0  0  0  0  0  0  0  0  0
    3.6716    2.0134    1.4540 H   0  0  0  0  0  0  0  0  0  0  0  0
    4.0469    0.3535    2.0212 H   0  0  0  0  0  0  0  0  0  0  0  0
    5.4373    1.9599   -0.4309 H   0  0  0  0  0  0  0  0  0  0  0  0
    5.3806    0.5758   -1.5582 H   0  0  0  0  0  0  0  0  0  0  0  0
    6.0025    0.3452    0.0946 H   0  0  0  0  0  0  0  0  0  0  0  0
    0.4590   -2.2322    1.9589 H   0  0  0  0  0  0  0  0  0  0  0  0
  1  2  1  0
  2  3  2  0
  3  4  1  0
  4  5  1  0
  4  6  2  0
  6  7  1  0
  7  8  1  0
  8  9  2  0
  8 10  1  0
 10 11  1  0
  6 12  1  0
 12 13  1  0
 13 14  1  0
 14 15  1  0
 15 16  1  0
 16 17  1  0
 17 18  1  0
 17 19  1  0
 19 20  2  0
 12 21  2  0
 21  2  1  0
 19 14  1  0
  1 22  1  0
  1 23  1  0
  1 24  1  0
  3 25  1  0
  5 26  1  0
  5 27  1  0
  5 28  1  0
  7 29  1  0
 10 30  1  0
 10 31  1  0
 11 32  1  0
 14 33  1  0
 15 34  1  0
 15 35  1  0
 16 36  1  0
 16 37  1  0
 18 38  1  0
 18 39  1  0
 18 40  1  0
 21 41  1  0
M  END
