LIG
     RDKit          3D

 37 37  0  0  0  0  0  0  0  0999 V2000
   -4.4719   -1.8000    1.5354 C   0  0  0  0  0  0  0  0  0  0  0  0
   -3.3942   -1.0569    0.8028 C   0  0  0  0  0  0  0  0  0  0  0  0
   -3.1199   -1.3796   -0.5335 C   0  0  0  0  0  0  0  0  0  0  0  0
   -2.1195   -0.7092   -1.2489 C   0  0  0  0  0  0  0  0  0  0  0  0
   -1.3731    0.2987   -0.6420 C   0  0  0  0  0  0  0  0  0  0  0  0
   -0.3497    1.0197   -1.2861 N   0  0  0  0  0  0  0  0  0  0  0  0
    0.1986    0.7850   -2.5365 C   0  0  0  0  0  0  0  0  0  0  0  0
   -0.1085   -0.1178   -3.3097 O   0  0  0  0  0  0  0  0  0  0  0  0
    1.3413    1.7680   -2.8704 C   0  0  0  0  0  0  0  0  0  0  0  0
    2.6888    1.3551   -2.7097 O   0  0  0  0  0  0  0  0  0  0  0  0
    2.9511    0.5215   -1.5914 C   0  0  0  0  0  0  0  0  0  0  0  0
    2.5557    1.0014   -0.1734 C   0  0  0  0  0  0  0  0  0  0  0  0
    1.9195    2.0489   -0.0152 O   0  0  0  0  0  0  0  0  0  0  0  0
    2.9048    0.1835    0.9008 N   0  0  0  0  0  0  0  0  0  0  0  0
    3.3622   -1.1896    0.7447 C   0  0  0  0  0  0  0  0  0  0  0  0
    2.3998    0.5377    2.2181 C   0  0  0  0  0  0  0  0  0  0  0  0
   -1.6452    0.6303    0.6888 C   0  0  0  0  0  0  0  0  0  0  0  0
   -2.6418   -0.0409    1.3990 C   0  0  0  0  0  0  0  0  0  0  0  0
   -2.8252    0.3545    2.6943 O   0  0  0  0  0  0  0  0  0  0  0  0
   -5.2678   -1.1119    1.8374 H   0  0  0  0  0  0  0  0  0  0  0  0
   -4.9241   -2.5772    0.9100 H   0  0  0  0  0  0  0  0  0  0  0  0
   -4.0578   -2.2909    2.4219 H   0  0  0  0  0  0  0  0  0  0  0  0
   -3.6847   -2.1599   -1.0402 H   0  0  0  0  0  0  0  0  0  0  0  0
   -1.9549   -0.9960   -2.2832 H   0  0  0  0  0  0  0  0  0  0  0  0
    0.1190    1.7281   -0.7171 H   0  0  0  0  0  0  0  0  0  0  0  0
    1.2148    2.0429   -3.9247 H   0  0  0  0  0  0  0  0  0  0  0  0
    1.1960    2.7057   -2.3217 H   0  0  0  0  0  0  0  0  0  0  0  0
    2.4850   -0.4537   -1.7724 H   0  0  0  0  0  0  0  0  0  0  0  0
    4.0364    0.3739   -1.5855 H   0  0  0  0  0  0  0  0  0  0  0  0
    3.9749   -1.4694    1.6067 H   0  0  0  0  0  0  0  0  0  0  0  0
    2.4866   -1.8426    0.6864 H   0  0  0  0  0  0  0  0  0  0  0  0
    3.9623   -1.3179   -0.1574 H   0  0  0  0  0  0  0  0  0  0  0  0
    2.2285    1.6139    2.3064 H   0  0  0  0  0  0  0  0  0  0  0  0
    3.1267    0.2370    2.9781 H   0  0  0  0  0  0  0  0  0  0  0  0
    1.4541    0.0129    2.3825 H   0  0  0  0  0  0  0  0  0  0  0  0
   -1.0833    1.4128    1.1926 H   0  0  0  0  0  0  0  0  0  0  0  0
   -3.5842   -0.1177    3.0696 H   0  0  0  0  0  0  0  0  0  0  0  0
  1  2  1  0
  2  3  2  0
  3  4  1  0
  4  5  2  0
  5  6  1  0
  6  7  1  0
  7  8  2  0
  7  9  1  0
  9 10  1  0
 10 11  1  0
 11 12  1  0
 12 13  2  0
 12 14  1  0
 14 15  1  0
 14 16  1  0
  5 17  1  0
 17 18  2  0
 18 19  1  0
 18  2  1  0
  1 20  1  0
  1 21  1  0
  1 22  1  0
  3 23  1  0
  4 24  1  0
  6 25  1  0
  9 26  1  0
  9 27  1  0
 11 28  1  0
 11 29  1  0
 15 30  1  0
 15 31  1  0
 15 32  1  0
 16 33  1  0
 16 34  1  0
 16 35  1  0
 17 36  1  0
 19 37  1  0
M  END
