LIG
     RDKit          3D

 37 38  0  0  0  0  0  0  0  0999 V2000
   35.1858    8.5623    1.6034 C   0  0  0  0  0  0  0  0  0  0  0  0
   35.1569    7.5267    2.6995 C   0  0  0  0  0  0  0  0  0  0  0  0
   35.5850    6.3944    2.4917 O   0  0  0  0  0  0  0  0  0  0  0  0
   34.5860    7.8465    3.8961 N   0  0  0  0  0  0  0  0  0  0  0  0
   34.5252    9.0966    4.5083 C   0  0  0  0  0  0  0  0  0  0  0  0
   35.4938   10.0403    4.2221 C   0  0  0  0  0  0  0  0  0  0  0  0
   35.4138   11.2276    4.8749 C   0  0  0  0  0  0  0  0  0  0  0  0
   34.3903   11.5415    5.6706 N   0  0  0  0  0  0  0  0  0  0  0  0
   33.4675   10.6249    5.9609 C   0  0  0  0  0  0  0  0  0  0  0  0
   32.4493   10.9495    6.8169 O   0  0  0  0  0  0  0  0  0  0  0  0
   32.1100   12.3317    6.8455 C   0  0  0  0  0  0  0  0  0  0  0  0
   33.2034   13.3773    7.1466 C   0  0  0  0  0  0  0  0  0  0  0  0
   33.5204   13.5890    8.3225 O   0  0  0  0  0  0  0  0  0  0  0  0
   33.8113   14.0313    6.0681 N   0  0  0  0  0  0  0  0  0  0  0  0
   34.9825   14.8597    6.3520 C   0  0  0  0  0  0  0  0  0  0  0  0
   35.9568   14.9620    5.1775 C   0  0  0  0  0  0  0  0  0  0  0  0
   35.3088   15.2578    3.9362 O   0  0  0  0  0  0  0  0  0  0  0  0
   34.3558   14.2604    3.6053 C   0  0  0  0  0  0  0  0  0  0  0  0
   33.2980   14.0471    4.6912 C   0  0  0  0  0  0  0  0  0  0  0  0
   33.5410    9.3531    5.4631 C   0  0  0  0  0  0  0  0  0  0  0  0
   34.4499    9.3542    1.7616 H   0  0  0  0  0  0  0  0  0  0  0  0
   36.1897    8.9828    1.5106 H   0  0  0  0  0  0  0  0  0  0  0  0
   34.9251    8.0715    0.6598 H   0  0  0  0  0  0  0  0  0  0  0  0
   34.3711    7.0441    4.5001 H   0  0  0  0  0  0  0  0  0  0  0  0
   36.3453    9.8458    3.5854 H   0  0  0  0  0  0  0  0  0  0  0  0
   36.1870   11.9760    4.7700 H   0  0  0  0  0  0  0  0  0  0  0  0
   31.3806   12.4406    7.6596 H   0  0  0  0  0  0  0  0  0  0  0  0
   31.5336   12.5883    5.9535 H   0  0  0  0  0  0  0  0  0  0  0  0
   34.6097   15.8410    6.6245 H   0  0  0  0  0  0  0  0  0  0  0  0
   35.5134   14.4741    7.2299 H   0  0  0  0  0  0  0  0  0  0  0  0
   36.6875   15.7520    5.3612 H   0  0  0  0  0  0  0  0  0  0  0  0
   36.5311   14.0396    5.0633 H   0  0  0  0  0  0  0  0  0  0  0  0
   33.8609   14.5649    2.6766 H   0  0  0  0  0  0  0  0  0  0  0  0
   34.8873   13.3352    3.3735 H   0  0  0  0  0  0  0  0  0  0  0  0
   32.5561   14.8429    4.6419 H   0  0  0  0  0  0  0  0  0  0  0  0
   32.7500   13.1334    4.4534 H   0  0  0  0  0  0  0  0  0  0  0  0
   32.8191    8.6144    5.7784 H   0  0  0  0  0  0  0  0  0  0  0  0
  1  2  1  0
  2  3  2  0
  2  4  1  0
  4  5  1  0
  5  6  2  0
  6  7  1  0
  7  8  2  0
  8  9  1  0
  9 10  1  0
 10 11  1  0
 11 12  1  0
 12 13  2  0
 12 14  1  0
 14 15  1  0
 15 16  1  0
 16 17  1  0
 17 18  1  0
 18 19  1  0
  9 20  2  0
 20  5  1  0
 19 14  1  0
  1 21  1  0
  1 22  1  0
  1 23  1  0
  4 24  1  0
  6 25  1  0
  7 26  1  0
 11 27  1  0
 11 28  1  0
 15 29  1  0
 15 30  1  0
 16 31  1  0
 16 32  1  0
 18 33  1  0
 18 34  1  0
 19 35  1  0
 19 36  1  0
 20 37  1  0
M  END
