LIG
     RDKit          3D

 40 41  0  0  0  0  0  0  0  0999 V2000
   28.5482   14.6108   10.5025 C   0  0  0  0  0  0  0  0  0  0  0  0
   29.9607   14.6445   10.2019 N   0  0  0  0  0  0  0  0  0  0  0  0
   30.8162   15.3714   11.1267 C   0  0  0  0  0  0  0  0  0  0  0  0
   30.5722   13.7525    9.3258 C   0  0  0  0  0  0  0  0  0  0  0  0
   31.8046   13.6860    9.2799 O   0  0  0  0  0  0  0  0  0  0  0  0
   29.7121   12.8760    8.3879 C   0  0  0  0  0  0  0  0  0  0  0  0
   30.0716   11.4947    8.3733 O   0  0  0  0  0  0  0  0  0  0  0  0
   31.0781   11.0492    7.5661 C   0  0  0  0  0  0  0  0  0  0  0  0
   31.3247    9.6796    7.5662 C   0  0  0  0  0  0  0  0  0  0  0  0
   32.2719    9.0741    6.8095 N   0  0  0  0  0  0  0  0  0  0  0  0
   33.0088    9.8683    6.0039 C   0  0  0  0  0  0  0  0  0  0  0  0
   32.8380   11.2446    5.9095 C   0  0  0  0  0  0  0  0  0  0  0  0
   33.6039   11.9613    4.9713 N   0  0  0  0  0  0  0  0  0  0  0  0
   33.4821   13.2974    4.6366 C   0  0  0  0  0  0  0  0  0  0  0  0
   32.7196   14.1101    5.1543 O   0  0  0  0  0  0  0  0  0  0  0  0
   34.4123   13.6954    3.4834 C   0  0  0  0  0  0  0  0  0  0  0  0
   33.7062   14.6286    2.5109 C   0  0  0  0  0  0  0  0  0  0  0  0
   34.3917   14.3147    1.2077 C   0  0  0  0  0  0  0  0  0  0  0  0
   34.6308   12.8277    1.3271 C   0  0  0  0  0  0  0  0  0  0  0  0
   34.8398   12.5503    2.7199 O   0  0  0  0  0  0  0  0  0  0  0  0
   31.8694   11.8313    6.7308 C   0  0  0  0  0  0  0  0  0  0  0  0
   28.3779   15.0223   11.4979 H   0  0  0  0  0  0  0  0  0  0  0  0
   28.1648   13.5915   10.5154 H   0  0  0  0  0  0  0  0  0  0  0  0
   28.0115   15.1838    9.7425 H   0  0  0  0  0  0  0  0  0  0  0  0
   30.6741   14.9422   12.1170 H   0  0  0  0  0  0  0  0  0  0  0  0
   31.8736   15.3038   10.8648 H   0  0  0  0  0  0  0  0  0  0  0  0
   30.5553   16.4264   11.1477 H   0  0  0  0  0  0  0  0  0  0  0  0
   28.6598   12.9075    8.6689 H   0  0  0  0  0  0  0  0  0  0  0  0
   29.7360   13.3140    7.3829 H   0  0  0  0  0  0  0  0  0  0  0  0
   30.7392    9.0055    8.1870 H   0  0  0  0  0  0  0  0  0  0  0  0
   33.7508    9.3377    5.4126 H   0  0  0  0  0  0  0  0  0  0  0  0
   34.2851   11.4475    4.4137 H   0  0  0  0  0  0  0  0  0  0  0  0
   35.3070   14.1638    3.9086 H   0  0  0  0  0  0  0  0  0  0  0  0
   32.6379   14.3900    2.4351 H   0  0  0  0  0  0  0  0  0  0  0  0
   33.7920   15.6803    2.8000 H   0  0  0  0  0  0  0  0  0  0  0  0
   33.8062   14.5852    0.3252 H   0  0  0  0  0  0  0  0  0  0  0  0
   35.3508   14.8438    1.1589 H   0  0  0  0  0  0  0  0  0  0  0  0
   33.7531   12.2581    1.0030 H   0  0  0  0  0  0  0  0  0  0  0  0
   35.4972   12.4918    0.7507 H   0  0  0  0  0  0  0  0  0  0  0  0
   31.7399   12.9033    6.7221 H   0  0  0  0  0  0  0  0  0  0  0  0
  1  2  1  0
  2  3  1  0
  2  4  1  0
  4  5  2  0
  4  6  1  0
  6  7  1  0
  7  8  1  0
  8  9  2  0
  9 10  1  0
 10 11  2  0
 11 12  1  0
 12 13  1  0
 13 14  1  0
 14 15  2  0
 14 16  1  0
 16 17  1  0
 17 18  1  0
 18 19  1  0
 19 20  1  0
 12 21  2  0
 21  8  1  0
 20 16  1  0
  1 22  1  0
  1 23  1  0
  1 24  1  0
  3 25  1  0
  3 26  1  0
  3 27  1  0
  6 28  1  0
  6 29  1  0
  9 30  1  0
 11 31  1  0
 13 32  1  0
 16 33  1  0
 17 34  1  0
 17 35  1  0
 18 36  1  0
 18 37  1  0
 19 38  1  0
 19 39  1  0
 21 40  1  0
M  END
