LIG
     RDKit          3D

 48 49  0  0  0  0  0  0  0  0999 V2000
   33.7826    9.2736    5.7826 C   0  0  0  0  0  0  0  0  0  0  0  0
   32.6402    9.9135    6.5154 C   0  0  0  0  0  0  0  0  0  0  0  0
   31.8558    9.2049    7.4327 C   0  0  0  0  0  0  0  0  0  0  0  0
   30.8254    9.8442    8.1282 C   0  0  0  0  0  0  0  0  0  0  0  0
   30.5483   11.1880    7.8905 C   0  0  0  0  0  0  0  0  0  0  0  0
   29.4936   11.7398    8.5427 O   0  0  0  0  0  0  0  0  0  0  0  0
   29.3636   13.1494    8.6423 C   0  0  0  0  0  0  0  0  0  0  0  0
   30.3709   13.9063    9.5444 C   0  0  0  0  0  0  0  0  0  0  0  0
   31.5855   13.7265    9.4664 O   0  0  0  0  0  0  0  0  0  0  0  0
   29.8725   14.8636   10.4316 N   0  0  0  0  0  0  0  0  0  0  0  0
   30.8600   15.5659   11.2346 C   0  0  0  0  0  0  0  0  0  0  0  0
   28.5756   14.6686   11.0271 C   0  0  0  0  0  0  0  0  0  0  0  0
   31.2807   11.8639    6.9366 C   0  0  0  0  0  0  0  0  0  0  0  0
   32.3153   11.2400    6.2451 C   0  0  0  0  0  0  0  0  0  0  0  0
   33.0316   11.8174    5.2345 O   0  0  0  0  0  0  0  0  0  0  0  0
   32.7862   13.1780    4.9237 C   0  0  0  0  0  0  0  0  0  0  0  0
   33.5053   13.9952    5.9645 C   0  0  0  0  0  0  0  0  0  0  0  0
   33.1317   13.9487    7.1387 O   0  0  0  0  0  0  0  0  0  0  0  0
   34.5943   14.7480    5.6030 N   0  0  0  0  0  0  0  0  0  0  0  0
   35.5639   14.9224    6.6752 C   0  0  0  0  0  0  0  0  0  0  0  0
   36.5846   13.7900    6.5353 C   0  0  0  0  0  0  0  0  0  0  0  0
   37.2887   13.9446    5.2840 O   0  0  0  0  0  0  0  0  0  0  0  0
   36.3692   13.7968    4.1840 C   0  0  0  0  0  0  0  0  0  0  0  0
   35.2257   14.8129    4.2791 C   0  0  0  0  0  0  0  0  0  0  0  0
   34.1543    8.4013    6.3146 H   0  0  0  0  0  0  0  0  0  0  0  0
   34.6253    9.9635    5.6731 H   0  0  0  0  0  0  0  0  0  0  0  0
   33.4670    8.9648    4.7838 H   0  0  0  0  0  0  0  0  0  0  0  0
   32.0418    8.1520    7.6272 H   0  0  0  0  0  0  0  0  0  0  0  0
   30.2330    9.2807    8.8438 H   0  0  0  0  0  0  0  0  0  0  0  0
   28.3449   13.3143    8.9983 H   0  0  0  0  0  0  0  0  0  0  0  0
   29.3641   13.6263    7.6550 H   0  0  0  0  0  0  0  0  0  0  0  0
   30.4789   16.5244   11.5836 H   0  0  0  0  0  0  0  0  0  0  0  0
   31.0884   14.9532   12.0996 H   0  0  0  0  0  0  0  0  0  0  0  0
   31.7785   15.7482   10.6717 H   0  0  0  0  0  0  0  0  0  0  0  0
   28.3670   13.6166   11.2074 H   0  0  0  0  0  0  0  0  0  0  0  0
   27.8193   15.0548   10.3403 H   0  0  0  0  0  0  0  0  0  0  0  0
   28.5303   15.1783   11.9909 H   0  0  0  0  0  0  0  0  0  0  0  0
   31.0288   12.8890    6.7236 H   0  0  0  0  0  0  0  0  0  0  0  0
   33.1676   13.3319    3.9171 H   0  0  0  0  0  0  0  0  0  0  0  0
   31.7255   13.4430    4.8699 H   0  0  0  0  0  0  0  0  0  0  0  0
   35.1105   14.9129    7.6700 H   0  0  0  0  0  0  0  0  0  0  0  0
   36.0352   15.8870    6.5120 H   0  0  0  0  0  0  0  0  0  0  0  0
   37.3149   13.7803    7.3470 H   0  0  0  0  0  0  0  0  0  0  0  0
   36.0943   12.8138    6.5270 H   0  0  0  0  0  0  0  0  0  0  0  0
   36.9312   13.9473    3.2571 H   0  0  0  0  0  0  0  0  0  0  0  0
   35.9861   12.7694    4.1811 H   0  0  0  0  0  0  0  0  0  0  0  0
   35.6524   15.8126    4.1657 H   0  0  0  0  0  0  0  0  0  0  0  0
   34.5031   14.6864    3.4723 H   0  0  0  0  0  0  0  0  0  0  0  0
  1  2  1  0
  2  3  2  0
  3  4  1  0
  4  5  2  0
  5  6  1  0
  6  7  1  0
  7  8  1  0
  8  9  2  0
  8 10  1  0
 10 11  1  0
 10 12  1  0
  5 13  1  0
 13 14  2  0
 14 15  1  0
 15 16  1  0
 16 17  1  0
 17 18  2  0
 17 19  1  0
 19 20  1  0
 20 21  1  0
 21 22  1  0
 22 23  1  0
 23 24  1  0
 14  2  1  0
 24 19  1  0
  1 25  1  0
  1 26  1  0
  1 27  1  0
  3 28  1  0
  4 29  1  0
  7 30  1  0
  7 31  1  0
 11 32  1  0
 11 33  1  0
 11 34  1  0
 12 35  1  0
 12 36  1  0
 12 37  1  0
 13 38  1  0
 16 39  1  0
 16 40  1  0
 20 41  1  0
 20 42  1  0
 21 43  1  0
 21 44  1  0
 23 45  1  0
 23 46  1  0
 24 47  1  0
 24 48  1  0
M  END
