LIG
     RDKit          3D

 45 47  0  0  0  0  0  0  0  0999 V2000
   31.3283    9.4739    6.8351 C   0  0  0  0  0  0  0  0  0  0  0  0
   32.4480   10.1468    6.1249 C   0  0  0  0  0  0  0  0  0  0  0  0
   33.0832    9.4061    5.1323 C   0  0  0  0  0  0  0  0  0  0  0  0
   34.0387   10.0245    4.3488 C   0  0  0  0  0  0  0  0  0  0  0  0
   34.4434   11.3060    4.6848 C   0  0  0  0  0  0  0  0  0  0  0  0
   34.9683   12.1418    3.7018 N   0  0  0  0  0  0  0  0  0  0  0  0
   34.5970   13.4894    3.6378 C   0  0  0  0  0  0  0  0  0  0  0  0
   34.0857   14.1707    4.5216 O   0  0  0  0  0  0  0  0  0  0  0  0
   34.8451   14.0623    2.2521 C   0  0  0  0  0  0  0  0  0  0  0  0
   33.6255   14.8380    1.7736 C   0  0  0  0  0  0  0  0  0  0  0  0
   33.5941   14.5227    0.3031 C   0  0  0  0  0  0  0  0  0  0  0  0
   34.0769   13.0938    0.2823 C   0  0  0  0  0  0  0  0  0  0  0  0
   35.0770   12.9975    1.3009 O   0  0  0  0  0  0  0  0  0  0  0  0
   34.0971   11.8647    5.8864 C   0  0  0  0  0  0  0  0  0  0  0  0
   32.9362   11.4265    6.4433 C   0  0  0  0  0  0  0  0  0  0  0  0
   32.1634   12.3173    7.0981 O   0  0  0  0  0  0  0  0  0  0  0  0
   32.6962   13.4932    7.7000 C   0  0  0  0  0  0  0  0  0  0  0  0
   31.3747   14.0618    8.1215 C   0  0  0  0  0  0  0  0  0  0  0  0
   31.0207   14.7233    6.7699 C   0  0  0  0  0  0  0  0  0  0  0  0
   32.0990   15.6335    6.6502 N   0  0  0  0  0  0  0  0  0  0  0  0
   31.8677   17.0083    7.0884 C   0  0  0  0  0  0  0  0  0  0  0  0
   33.1659   14.9445    7.2722 C   0  0  0  0  0  0  0  0  0  0  0  0
   34.1636   15.4945    7.7192 O   0  0  0  0  0  0  0  0  0  0  0  0
   30.7712    8.8230    6.1557 H   0  0  0  0  0  0  0  0  0  0  0  0
   31.7856    8.8618    7.6092 H   0  0  0  0  0  0  0  0  0  0  0  0
   30.6280   10.1966    7.2505 H   0  0  0  0  0  0  0  0  0  0  0  0
   32.7586    8.3986    4.8902 H   0  0  0  0  0  0  0  0  0  0  0  0
   34.3942    9.5401    3.4455 H   0  0  0  0  0  0  0  0  0  0  0  0
   35.1899   11.7422    2.7930 H   0  0  0  0  0  0  0  0  0  0  0  0
   35.7442   14.6866    2.2810 H   0  0  0  0  0  0  0  0  0  0  0  0
   32.7042   14.4787    2.2490 H   0  0  0  0  0  0  0  0  0  0  0  0
   33.7052   15.9095    1.9803 H   0  0  0  0  0  0  0  0  0  0  0  0
   34.3053   15.1667   -0.2275 H   0  0  0  0  0  0  0  0  0  0  0  0
   32.6083   14.6489   -0.1519 H   0  0  0  0  0  0  0  0  0  0  0  0
   34.5035   12.8060   -0.6823 H   0  0  0  0  0  0  0  0  0  0  0  0
   33.2702   12.3952    0.5311 H   0  0  0  0  0  0  0  0  0  0  0  0
   34.5412   12.8042    6.1922 H   0  0  0  0  0  0  0  0  0  0  0  0
   33.3120   13.2182    8.5647 H   0  0  0  0  0  0  0  0  0  0  0  0
   30.6913   13.3301    8.5269 H   0  0  0  0  0  0  0  0  0  0  0  0
   31.5832   14.7646    8.9384 H   0  0  0  0  0  0  0  0  0  0  0  0
   31.0837   14.0254    5.9226 H   0  0  0  0  0  0  0  0  0  0  0  0
   30.0973   15.2549    6.5980 H   0  0  0  0  0  0  0  0  0  0  0  0
   31.8437   17.0770    8.1795 H   0  0  0  0  0  0  0  0  0  0  0  0
   32.7113   17.6139    6.7408 H   0  0  0  0  0  0  0  0  0  0  0  0
   30.9512   17.3979    6.6378 H   0  0  0  0  0  0  0  0  0  0  0  0
  1  2  1  0
  2  3  2  0
  3  4  1  0
  4  5  2  0
  5  6  1  0
  6  7  1  0
  7  8  2  0
  7  9  1  0
  9 10  1  0
 10 11  1  0
 11 12  1  0
 12 13  1  0
  5 14  1  0
 14 15  2  0
 15 16  1  0
 16 17  1  0
 17 18  1  0
 18 19  1  0
 19 20  1  0
 20 21  1  0
 20 22  1  0
 22 23  2  0
 15  2  1  0
 22 17  1  0
 13  9  1  0
  1 24  1  0
  1 25  1  0
  1 26  1  0
  3 27  1  0
  4 28  1  0
  6 29  1  0
  9 30  1  0
 10 31  1  0
 10 32  1  0
 11 33  1  0
 11 34  1  0
 12 35  1  0
 12 36  1  0
 14 37  1  0
 17 38  1  0
 18 39  1  0
 18 40  1  0
 19 41  1  0
 19 42  1  0
 21 43  1  0
 21 44  1  0
 21 45  1  0
M  END
