LIG
     RDKit          3D

 40 41  0  0  0  0  0  0  0  0999 V2000
   30.1570    8.4110    8.0350 C   0  0  0  0  0  0  0  0  0  0  0  0
   31.0170    9.5590    7.5720 C   0  0  0  0  0  0  0  0  0  0  0  0
   30.7220   10.8640    7.9390 C   0  0  0  0  0  0  0  0  0  0  0  0
   31.5450   11.9340    7.6020 C   0  0  0  0  0  0  0  0  0  0  0  0
   31.1650   13.3330    8.0150 O   0  0  0  0  0  0  0  0  0  0  0  0
   30.0580   13.6540    8.5870 C   0  0  0  0  0  0  0  0  0  0  0  0
   28.5940   13.4330    8.1660 C   0  0  0  0  0  0  0  0  0  0  0  0
   27.8900   14.7750    8.3110 C   0  0  0  0  0  0  0  0  0  0  0  0
   28.8690   15.5850    9.0100 N   0  0  0  0  0  0  0  0  0  0  0  0
   28.4820   16.7650    9.7690 C   0  0  0  0  0  0  0  0  0  0  0  0
   30.1260   15.1410    8.9140 C   0  0  0  0  0  0  0  0  0  0  0  0
   31.1310   15.8110    9.0820 O   0  0  0  0  0  0  0  0  0  0  0  0
   32.7080   11.6650    6.8730 C   0  0  0  0  0  0  0  0  0  0  0  0
   33.6520   12.7090    6.6590 N   0  0  0  0  0  0  0  0  0  0  0  0
   34.4250   13.2280    7.6390 C   0  0  0  0  0  0  0  0  0  0  0  0
   34.9120   12.5690    8.5560 O   0  0  0  0  0  0  0  0  0  0  0  0
   34.6680   14.7180    7.5670 C   0  0  0  0  0  0  0  0  0  0  0  0
   35.0470   15.1300    6.2680 O   0  0  0  0  0  0  0  0  0  0  0  0
   33.0110   10.3720    6.4380 C   0  0  0  0  0  0  0  0  0  0  0  0
   34.1980   10.0910    5.5530 C   0  0  0  0  0  0  0  0  0  0  0  0
   32.1560    9.3390    6.8090 N   0  0  0  0  0  0  0  0  0  0  0  0
   29.1228    8.7329    8.1801 H   0  0  0  0  0  0  0  0  0  0  0  0
   29.3563    8.2242    7.3145 H   0  0  0  0  0  0  0  0  0  0  0  0
   30.1837    7.6096    7.2940 H   0  0  0  0  0  0  0  0  0  0  0  0
   29.8304   11.0414    8.5722 H   0  0  0  0  0  0  0  0  0  0  0  0
   30.0117   14.4708    7.0453 H   0  0  0  0  0  0  0  0  0  0  0  0
   28.1211   12.6735    8.8208 H   0  0  0  0  0  0  0  0  0  0  0  0
   28.5053   13.0415    7.1354 H   0  0  0  0  0  0  0  0  0  0  0  0
   26.9707   14.7012    8.8939 H   0  0  0  0  0  0  0  0  0  0  0  0
   27.6899   15.2349    7.3406 H   0  0  0  0  0  0  0  0  0  0  0  0
   29.3474   17.4084    9.9353 H   0  0  0  0  0  0  0  0  0  0  0  0
   28.7104   17.6515    9.1755 H   0  0  0  0  0  0  0  0  0  0  0  0
   29.0530   16.7801   10.6999 H   0  0  0  0  0  0  0  0  0  0  0  0
   33.4431   13.3552    5.8842 H   0  0  0  0  0  0  0  0  0  0  0  0
   33.7636   15.2593    7.8431 H   0  0  0  0  0  0  0  0  0  0  0  0
   35.4713   14.9788    8.2547 H   0  0  0  0  0  0  0  0  0  0  0  0
   35.8563   15.6790    6.3928 H   0  0  0  0  0  0  0  0  0  0  0  0
   34.2119   10.7729    4.6979 H   0  0  0  0  0  0  0  0  0  0  0  0
   34.1486    9.0687    5.1692 H   0  0  0  0  0  0  0  0  0  0  0  0
   33.8677    9.8110    4.5482 H   0  0  0  0  0  0  0  0  0  0  0  0
  1  2  1  0
  2  3  4  0
  3  4  4  0
  4  5  1  0
  5  6  1  0
  6  7  1  0
  7  8  1  0
  8  9  1  0
  9 10  1  0
  9 11  1  0
 11 12  2  0
  4 13  4  0
 13 14  1  0
 14 15  1  0
 15 16  2  0
 15 17  1  0
 17 18  1  0
 13 19  4  0
 19 20  1  0
 19 21  4  0
 21  2  4  0
 11  6  1  0
  1 22  1  0
  1 23  1  0
  1 24  1  0
  3 25  1  0
  6 26  1  0
  7 27  1  0
  7 28  1  0
  8 29  1  0
  8 30  1  0
 10 31  1  0
 10 32  1  0
 10 33  1  0
 14 34  1  0
 17 35  1  0
 17 36  1  0
 18 37  1  0
 20 38  1  0
 20 39  1  0
 20 40  1  0
M  END
