LIG
     RDKit          3D

 40 40  0  0  0  0  0  0  0  0999 V2000
   32.5990   10.4621    4.6188 C   0  0  0  0  0  0  0  0  0  0  0  0
   31.7330   10.8470    5.8070 C   0  0  0  0  0  0  0  0  0  0  0  0
   31.2880    9.8340    6.6350 C   0  0  0  0  0  0  0  0  0  0  0  0
   30.4800   10.1020    7.7350 C   0  0  0  0  0  0  0  0  0  0  0  0
   29.9390    8.9850    8.5900 C   0  0  0  0  0  0  0  0  0  0  0  0
   30.1520   11.4340    7.9910 C   0  0  0  0  0  0  0  0  0  0  0  0
   29.4280   11.6110    9.1450 O   0  0  0  0  0  0  0  0  0  0  0  0
   28.8670   12.8920    9.4310 C   0  0  0  0  0  0  0  0  0  0  0  0
   29.9260   13.8300    9.9860 C   0  0  0  0  0  0  0  0  0  0  0  0
   31.1030   13.5010    9.9720 O   0  0  0  0  0  0  0  0  0  0  0  0
   29.5320   15.0110   10.4940 N   0  0  0  0  0  0  0  0  0  0  0  0
   28.1410   15.4480   10.5470 C   0  0  0  0  0  0  0  0  0  0  0  0
   30.5000   15.9370   11.0760 C   0  0  0  0  0  0  0  0  0  0  0  0
   30.5900   12.4580    7.1610 C   0  0  0  0  0  0  0  0  0  0  0  0
   31.3810   12.1530    6.0670 C   0  0  0  0  0  0  0  0  0  0  0  0
   33.6520   12.7090    6.6590 N   0  0  0  0  0  0  0  0  0  0  0  0
   34.4250   13.2280    7.6390 C   0  0  0  0  0  0  0  0  0  0  0  0
   34.9694   12.5759    8.5674 O   0  0  0  0  0  0  0  0  0  0  0  0
   34.6680   14.7180    7.5670 C   0  0  0  0  0  0  0  0  0  0  0  0
   35.0470   15.1300    6.2680 S   0  0  0  0  0  0  0  0  0  0  0  0
   32.7676    9.3809    4.5718 H   0  0  0  0  0  0  0  0  0  0  0  0
   33.5800   10.9426    4.6932 H   0  0  0  0  0  0  0  0  0  0  0  0
   32.1129   10.7581    3.6835 H   0  0  0  0  0  0  0  0  0  0  0  0
   31.5661    8.7964    6.4286 H   0  0  0  0  0  0  0  0  0  0  0  0
   30.0863    8.0152    8.1063 H   0  0  0  0  0  0  0  0  0  0  0  0
   28.8640    9.1044    8.7503 H   0  0  0  0  0  0  0  0  0  0  0  0
   30.4504    8.9738    9.5558 H   0  0  0  0  0  0  0  0  0  0  0  0
   28.0518   12.8174   10.1255 H   0  0  0  0  0  0  0  0  0  0  0  0
   28.5022   13.3057    8.5096 H   0  0  0  0  0  0  0  0  0  0  0  0
   28.0837   16.5017   10.2605 H   0  0  0  0  0  0  0  0  0  0  0  0
   28.0550   16.2615   11.2717 H   0  0  0  0  0  0  0  0  0  0  0  0
   27.7305   15.3475   11.5526 H   0  0  0  0  0  0  0  0  0  0  0  0
   31.3980   15.3742   11.3440 H   0  0  0  0  0  0  0  0  0  0  0  0
   31.4301   15.9615   10.5047 H   0  0  0  0  0  0  0  0  0  0  0  0
   30.7240   15.6233   12.0984 H   0  0  0  0  0  0  0  0  0  0  0  0
   30.3093   13.4690    7.3997 H   0  0  0  0  0  0  0  0  0  0  0  0
   33.9532   12.4094    5.6525 H   0  0  0  0  0  0  0  0  0  0  0  0
   35.4019   14.9019    8.4405 H   0  0  0  0  0  0  0  0  0  0  0  0
   33.6985   15.1619    8.0058 H   0  0  0  0  0  0  0  0  0  0  0  0
   34.0001   14.7358    5.4608 H   0  0  0  0  0  0  0  0  0  0  0  0
  1  2  1  0
  2  3  4  0
  3  4  4  0
  4  5  1  0
  4  6  4  0
  6  7  1  0
  7  8  1  0
  8  9  1  0
  9 10  2  0
  9 11  1  0
 11 12  1  0
 11 13  1  0
  6 14  4  0
 14 15  4  0
 15 16  1  0
 16 17  1  0
 17 18  2  0
 17 19  1  0
 19 20  1  0
 15  2  4  0
  1 21  1  0
  1 22  1  0
  1 23  1  0
  3 24  1  0
  5 25  1  0
  5 26  1  0
  5 27  1  0
  8 28  1  0
  8 29  1  0
 12 30  1  0
 12 31  1  0
 12 32  1  0
 13 33  1  0
 13 34  1  0
 13 35  1  0
 14 36  1  0
 16 37  1  0
 19 38  1  0
 19 39  1  0
 20 40  1  0
M  END
$$$$
LIG
     RDKit          3D

 40 40  0  0  0  0  0  0  0  0999 V2000
   32.6023   10.4601    4.6214 C   0  0  0  0  0  0  0  0  0  0  0  0
   31.7330   10.8470    5.8070 C   0  0  0  0  0  0  0  0  0  0  0  0
   31.2880    9.8340    6.6350 C   0  0  0  0  0  0  0  0  0  0  0  0
   30.4800   10.1020    7.7350 C   0  0  0  0  0  0  0  0  0  0  0  0
   29.9390    8.9850    8.5900 C   0  0  0  0  0  0  0  0  0  0  0  0
   30.1520   11.4340    7.9910 C   0  0  0  0  0  0  0  0  0  0  0  0
   29.4280   11.6110    9.1450 O   0  0  0  0  0  0  0  0  0  0  0  0
   28.8670   12.8920    9.4310 C   0  0  0  0  0  0  0  0  0  0  0  0
   29.9260   13.8300    9.9860 C   0  0  0  0  0  0  0  0  0  0  0  0
   31.1030   13.5010    9.9720 O   0  0  0  0  0  0  0  0  0  0  0  0
   29.5320   15.0110   10.4940 N   0  0  0  0  0  0  0  0  0  0  0  0
   30.5000   15.9370   11.0760 C   0  0  0  0  0  0  0  0  0  0  0  0
   28.1410   15.4480   10.5470 C   0  0  0  0  0  0  0  0  0  0  0  0
   30.5900   12.4580    7.1610 C   0  0  0  0  0  0  0  0  0  0  0  0
   31.3810   12.1530    6.0670 C   0  0  0  0  0  0  0  0  0  0  0  0
   33.6520   12.7090    6.6590 N   0  0  0  0  0  0  0  0  0  0  0  0
   34.4250   13.2280    7.6390 C   0  0  0  0  0  0  0  0  0  0  0  0
   34.9945   12.5735    8.5474 O   0  0  0  0  0  0  0  0  0  0  0  0
   34.6680   14.7180    7.5670 C   0  0  0  0  0  0  0  0  0  0  0  0
   35.0470   15.1300    6.2680 S   0  0  0  0  0  0  0  0  0  0  0  0
   32.7972    9.3826    4.5939 H   0  0  0  0  0  0  0  0  0  0  0  0
   33.5723   10.9644    4.6809 H   0  0  0  0  0  0  0  0  0  0  0  0
   32.1045   10.7274    3.6837 H   0  0  0  0  0  0  0  0  0  0  0  0
   31.5675    8.7971    6.4278 H   0  0  0  0  0  0  0  0  0  0  0  0
   28.8654    9.1008    8.7687 H   0  0  0  0  0  0  0  0  0  0  0  0
   30.4405    8.9779    9.5626 H   0  0  0  0  0  0  0  0  0  0  0  0
   29.5166    9.3877    9.5157 H   0  0  0  0  0  0  0  0  0  0  0  0
   28.5558   13.3030    8.4808 H   0  0  0  0  0  0  0  0  0  0  0  0
   28.0061   12.7867   10.0640 H   0  0  0  0  0  0  0  0  0  0  0  0
   30.2014   16.9615   10.8406 H   0  0  0  0  0  0  0  0  0  0  0  0
   30.0291   16.6175   11.7884 H   0  0  0  0  0  0  0  0  0  0  0  0
   30.9496   16.5200   10.2680 H   0  0  0  0  0  0  0  0  0  0  0  0
   28.0783   16.5068   10.2826 H   0  0  0  0  0  0  0  0  0  0  0  0
   27.8509   15.8109    9.5578 H   0  0  0  0  0  0  0  0  0  0  0  0
   27.5314   14.8836    9.8392 H   0  0  0  0  0  0  0  0  0  0  0  0
   30.3084   13.4702    7.3562 H   0  0  0  0  0  0  0  0  0  0  0  0
   33.9543   12.3953    5.6595 H   0  0  0  0  0  0  0  0  0  0  0  0
   33.6979   15.1585    7.9943 H   0  0  0  0  0  0  0  0  0  0  0  0
   35.4022   14.8976    8.4351 H   0  0  0  0  0  0  0  0  0  0  0  0
   35.3832   13.9616    5.6156 H   0  0  0  0  0  0  0  0  0  0  0  0
  1  2  1  0
  2  3  4  0
  3  4  4  0
  4  5  1  0
  4  6  4  0
  6  7  1  0
  7  8  1  0
  8  9  1  0
  9 10  2  0
  9 11  1  0
 11 12  1  0
 11 13  1  0
  6 14  4  0
 14 15  4  0
 15 16  1  0
 16 17  1  0
 17 18  2  0
 17 19  1  0
 19 20  1  0
 15  2  4  0
  1 21  1  0
  1 22  1  0
  1 23  1  0
  3 24  1  0
  5 25  1  0
  5 26  1  0
  5 27  1  0
  8 28  1  0
  8 29  1  0
 12 30  1  0
 12 31  1  0
 12 32  1  0
 13 33  1  0
 13 34  1  0
 13 35  1  0
 14 36  1  0
 16 37  1  0
 19 38  1  0
 19 39  1  0
 20 40  1  0
M  END
$$$$
LIG
     RDKit          3D

 40 40  0  0  0  0  0  0  0  0999 V2000
   32.6111   10.4611    4.6279 C   0  0  0  0  0  0  0  0  0  0  0  0
   31.7330   10.8470    5.8070 C   0  0  0  0  0  0  0  0  0  0  0  0
   31.2880    9.8340    6.6350 C   0  0  0  0  0  0  0  0  0  0  0  0
   30.4800   10.1020    7.7350 C   0  0  0  0  0  0  0  0  0  0  0  0
   29.9390    8.9850    8.5900 C   0  0  0  0  0  0  0  0  0  0  0  0
   30.1520   11.4340    7.9910 C   0  0  0  0  0  0  0  0  0  0  0  0
   29.4280   11.6110    9.1450 O   0  0  0  0  0  0  0  0  0  0  0  0
   28.8670   12.8920    9.4310 C   0  0  0  0  0  0  0  0  0  0  0  0
   29.9260   13.8300    9.9860 C   0  0  0  0  0  0  0  0  0  0  0  0
   31.1030   13.5010    9.9720 O   0  0  0  0  0  0  0  0  0  0  0  0
   29.5320   15.0110   10.4940 N   0  0  0  0  0  0  0  0  0  0  0  0
   28.1410   15.4480   10.5470 C   0  0  0  0  0  0  0  0  0  0  0  0
   30.5000   15.9370   11.0760 C   0  0  0  0  0  0  0  0  0  0  0  0
   30.5900   12.4580    7.1610 C   0  0  0  0  0  0  0  0  0  0  0  0
   31.3810   12.1530    6.0670 C   0  0  0  0  0  0  0  0  0  0  0  0
   33.6520   12.7090    6.6590 N   0  0  0  0  0  0  0  0  0  0  0  0
   34.4250   13.2280    7.6390 C   0  0  0  0  0  0  0  0  0  0  0  0
   34.9852   12.5785    8.5441 O   0  0  0  0  0  0  0  0  0  0  0  0
   34.6680   14.7180    7.5670 C   0  0  0  0  0  0  0  0  0  0  0  0
   35.0470   15.1300    6.2680 S   0  0  0  0  0  0  0  0  0  0  0  0
   32.1459   10.7816    3.6897 H   0  0  0  0  0  0  0  0  0  0  0  0
   33.5999   10.9200    4.7259 H   0  0  0  0  0  0  0  0  0  0  0  0
   32.7552    9.3778    4.5642 H   0  0  0  0  0  0  0  0  0  0  0  0
   31.5719    8.7970    6.4302 H   0  0  0  0  0  0  0  0  0  0  0  0
   30.6161    8.7917    9.4275 H   0  0  0  0  0  0  0  0  0  0  0  0
   30.6359    8.1420    8.6341 H   0  0  0  0  0  0  0  0  0  0  0  0
   29.7795    9.3342    9.6151 H   0  0  0  0  0  0  0  0  0  0  0  0
   28.4338   13.3521    8.5291 H   0  0  0  0  0  0  0  0  0  0  0  0
   28.0754   12.7911   10.1909 H   0  0  0  0  0  0  0  0  0  0  0  0
   27.8919   15.9601    9.6137 H   0  0  0  0  0  0  0  0  0  0  0  0
   28.0256   16.1368   11.3887 H   0  0  0  0  0  0  0  0  0  0  0  0
   28.0515   16.5322   10.4443 H   0  0  0  0  0  0  0  0  0  0  0  0
   30.9269   15.4755   11.9717 H   0  0  0  0  0  0  0  0  0  0  0  0
   31.4857   15.4631   11.0891 H   0  0  0  0  0  0  0  0  0  0  0  0
   30.2378   16.2081   12.0986 H   0  0  0  0  0  0  0  0  0  0  0  0
   30.3200   13.4739    7.3741 H   0  0  0  0  0  0  0  0  0  0  0  0
   33.9627   12.3922    5.6688 H   0  0  0  0  0  0  0  0  0  0  0  0
   35.4113   14.8892    8.4154 H   0  0  0  0  0  0  0  0  0  0  0  0
   33.7012   15.1512    7.9878 H   0  0  0  0  0  0  0  0  0  0  0  0
   34.7479   16.4774    6.2199 H   0  0  0  0  0  0  0  0  0  0  0  0
  1  2  1  0
  2  3  4  0
  3  4  4  0
  4  5  1  0
  4  6  4  0
  6  7  1  0
  7  8  1  0
  8  9  1  0
  9 10  2  0
  9 11  1  0
 11 12  1  0
 11 13  1  0
  6 14  4  0
 14 15  4  0
 15 16  1  0
 16 17  1  0
 17 18  2  0
 17 19  1  0
 19 20  1  0
 15  2  4  0
  1 21  1  0
  1 22  1  0
  1 23  1  0
  3 24  1  0
  5 25  1  0
  5 26  1  0
  5 27  1  0
  8 28  1  0
  8 29  1  0
 12 30  1  0
 12 31  1  0
 12 32  1  0
 13 33  1  0
 13 34  1  0
 13 35  1  0
 14 36  1  0
 16 37  1  0
 19 38  1  0
 19 39  1  0
 20 40  1  0
M  END
$$$$
