LIG
     RDKit          3D

 48 49  0  0  0  0  0  0  0  0999 V2000
   30.3953    8.5813    9.0165 C   0  0  0  0  0  0  0  0  0  0  0  0
   31.1067    9.4571    8.0332 C   0  0  0  0  0  0  0  0  0  0  0  0
   32.0927    8.8860    7.2290 C   0  0  0  0  0  0  0  0  0  0  0  0
   32.8237    9.6476    6.3238 C   0  0  0  0  0  0  0  0  0  0  0  0
   32.5362   10.9919    6.1774 C   0  0  0  0  0  0  0  0  0  0  0  0
   33.2746   11.6501    5.2399 O   0  0  0  0  0  0  0  0  0  0  0  0
   32.8929   12.9801    4.9114 C   0  0  0  0  0  0  0  0  0  0  0  0
   33.4735   13.9144    5.9463 C   0  0  0  0  0  0  0  0  0  0  0  0
   33.0017   13.9280    7.0859 O   0  0  0  0  0  0  0  0  0  0  0  0
   34.5517   14.7016    5.6222 N   0  0  0  0  0  0  0  0  0  0  0  0
   35.4756   14.9092    6.7315 C   0  0  0  0  0  0  0  0  0  0  0  0
   36.5309   13.8052    6.6340 C   0  0  0  0  0  0  0  0  0  0  0  0
   37.2824   13.9799    5.4136 O   0  0  0  0  0  0  0  0  0  0  0  0
   36.4155   13.7992    4.2769 C   0  0  0  0  0  0  0  0  0  0  0  0
   35.2322   14.7725    4.3224 C   0  0  0  0  0  0  0  0  0  0  0  0
   31.5138   11.5508    6.9334 C   0  0  0  0  0  0  0  0  0  0  0  0
   30.7997   10.8037    7.8536 C   0  0  0  0  0  0  0  0  0  0  0  0
   29.7622   11.3040    8.5599 O   0  0  0  0  0  0  0  0  0  0  0  0
   29.4052   12.6679    8.4668 C   0  0  0  0  0  0  0  0  0  0  0  0
   30.2226   13.6481    9.3258 C   0  0  0  0  0  0  0  0  0  0  0  0
   31.4375   13.5672    9.4926 O   0  0  0  0  0  0  0  0  0  0  0  0
   29.4896   14.6387    9.9682 N   0  0  0  0  0  0  0  0  0  0  0  0
   30.1632   15.3233   11.0592 C   0  0  0  0  0  0  0  0  0  0  0  0
   28.3256   15.2265    9.3365 C   0  0  0  0  0  0  0  0  0  0  0  0
   29.9480    9.1545    9.8268 H   0  0  0  0  0  0  0  0  0  0  0  0
   29.6134    8.0049    8.5152 H   0  0  0  0  0  0  0  0  0  0  0  0
   31.1023    7.9000    9.4926 H   0  0  0  0  0  0  0  0  0  0  0  0
   32.3089    7.8303    7.3277 H   0  0  0  0  0  0  0  0  0  0  0  0
   33.6042    9.1776    5.7306 H   0  0  0  0  0  0  0  0  0  0  0  0
   33.2732   13.1685    3.9095 H   0  0  0  0  0  0  0  0  0  0  0  0
   31.8099   13.1239    4.8308 H   0  0  0  0  0  0  0  0  0  0  0  0
   35.9308   15.8845    6.5880 H   0  0  0  0  0  0  0  0  0  0  0  0
   34.9819   14.8846    7.7067 H   0  0  0  0  0  0  0  0  0  0  0  0
   37.2222   13.8113    7.4793 H   0  0  0  0  0  0  0  0  0  0  0  0
   36.0651   12.8189    6.6000 H   0  0  0  0  0  0  0  0  0  0  0  0
   37.0094   13.9695    3.3736 H   0  0  0  0  0  0  0  0  0  0  0  0
   36.0709   12.7585    4.2597 H   0  0  0  0  0  0  0  0  0  0  0  0
   34.5427   14.6115    3.4927 H   0  0  0  0  0  0  0  0  0  0  0  0
   35.6250   15.7859    4.2123 H   0  0  0  0  0  0  0  0  0  0  0  0
   31.2539   12.5865    6.8047 H   0  0  0  0  0  0  0  0  0  0  0  0
   28.3748   12.6869    8.8316 H   0  0  0  0  0  0  0  0  0  0  0  0
   29.3499   13.0242    7.4321 H   0  0  0  0  0  0  0  0  0  0  0  0
   30.6545   16.2238   10.6862 H   0  0  0  0  0  0  0  0  0  0  0  0
   30.9301   14.6906   11.5061 H   0  0  0  0  0  0  0  0  0  0  0  0
   29.4342   15.5502   11.8398 H   0  0  0  0  0  0  0  0  0  0  0  0
   27.9230   14.6277    8.5185 H   0  0  0  0  0  0  0  0  0  0  0  0
   28.6103   16.1768    8.8787 H   0  0  0  0  0  0  0  0  0  0  0  0
   27.5404   15.3428   10.0780 H   0  0  0  0  0  0  0  0  0  0  0  0
  1  2  1  0
  2  3  2  0
  3  4  1  0
  4  5  2  0
  5  6  1  0
  6  7  1  0
  7  8  1  0
  8  9  2  0
  8 10  1  0
 10 11  1  0
 11 12  1  0
 12 13  1  0
 13 14  1  0
 14 15  1  0
  5 16  1  0
 16 17  2  0
 17 18  1  0
 18 19  1  0
 19 20  1  0
 20 21  2  0
 20 22  1  0
 22 23  1  0
 22 24  1  0
 17  2  1  0
 15 10  1  0
  1 25  1  0
  1 26  1  0
  1 27  1  0
  3 28  1  0
  4 29  1  0
  7 30  1  0
  7 31  1  0
 11 32  1  0
 11 33  1  0
 12 34  1  0
 12 35  1  0
 14 36  1  0
 14 37  1  0
 15 38  1  0
 15 39  1  0
 16 40  1  0
 19 41  1  0
 19 42  1  0
 23 43  1  0
 23 44  1  0
 23 45  1  0
 24 46  1  0
 24 47  1  0
 24 48  1  0
M  END
