LIG
     RDKit          3D

 48 49  0  0  0  0  0  0  0  0999 V2000
   30.3988    8.5823    9.0145 C   0  0  0  0  0  0  0  0  0  0  0  0
   31.1099    9.4591    8.0310 C   0  0  0  0  0  0  0  0  0  0  0  0
   32.0954    8.8884    7.2260 C   0  0  0  0  0  0  0  0  0  0  0  0
   32.8259    9.6499    6.3204 C   0  0  0  0  0  0  0  0  0  0  0  0
   32.5383   10.9942    6.1748 C   0  0  0  0  0  0  0  0  0  0  0  0
   33.2753   11.6530    5.2361 O   0  0  0  0  0  0  0  0  0  0  0  0
   32.8914   12.9829    4.9104 C   0  0  0  0  0  0  0  0  0  0  0  0
   33.4743   13.9163    5.9445 C   0  0  0  0  0  0  0  0  0  0  0  0
   33.0040   13.9309    7.0845 O   0  0  0  0  0  0  0  0  0  0  0  0
   34.5532   14.7025    5.6197 N   0  0  0  0  0  0  0  0  0  0  0  0
   35.4761   14.9106    6.7299 C   0  0  0  0  0  0  0  0  0  0  0  0
   36.5303   13.8054    6.6349 C   0  0  0  0  0  0  0  0  0  0  0  0
   37.2837   13.9783    5.4150 O   0  0  0  0  0  0  0  0  0  0  0  0
   36.4170   13.7961    4.2781 C   0  0  0  0  0  0  0  0  0  0  0  0
   35.2346   14.7706    4.3209 C   0  0  0  0  0  0  0  0  0  0  0  0
   31.5169   11.5530    6.9326 C   0  0  0  0  0  0  0  0  0  0  0  0
   30.8033   10.8057    7.8529 C   0  0  0  0  0  0  0  0  0  0  0  0
   29.7672   11.3060    8.5610 O   0  0  0  0  0  0  0  0  0  0  0  0
   29.4096   12.6689    8.4698 C   0  0  0  0  0  0  0  0  0  0  0  0
   30.2263   13.6505    9.3280 C   0  0  0  0  0  0  0  0  0  0  0  0
   31.4422   13.5751    9.4910 O   0  0  0  0  0  0  0  0  0  0  0  0
   29.4917   14.6394    9.9714 N   0  0  0  0  0  0  0  0  0  0  0  0
   28.3240   15.2230    9.3433 C   0  0  0  0  0  0  0  0  0  0  0  0
   30.1635   15.3242   11.0634 C   0  0  0  0  0  0  0  0  0  0  0  0
   31.1062    7.9011    9.4901 H   0  0  0  0  0  0  0  0  0  0  0  0
   29.9512    9.1552    9.8249 H   0  0  0  0  0  0  0  0  0  0  0  0
   29.6170    8.0060    8.5131 H   0  0  0  0  0  0  0  0  0  0  0  0
   32.3103    7.8325    7.3266 H   0  0  0  0  0  0  0  0  0  0  0  0
   33.6057    9.1790    5.7274 H   0  0  0  0  0  0  0  0  0  0  0  0
   31.8081   13.1261    4.8325 H   0  0  0  0  0  0  0  0  0  0  0  0
   33.2686   13.1732    3.9077 H   0  0  0  0  0  0  0  0  0  0  0  0
   35.9325   15.8852    6.5854 H   0  0  0  0  0  0  0  0  0  0  0  0
   34.9815   14.8881    7.7047 H   0  0  0  0  0  0  0  0  0  0  0  0
   37.2207   13.8118    7.4810 H   0  0  0  0  0  0  0  0  0  0  0  0
   36.0636   12.8195    6.6014 H   0  0  0  0  0  0  0  0  0  0  0  0
   36.0715   12.7557    4.2626 H   0  0  0  0  0  0  0  0  0  0  0  0
   37.0116   13.9642    3.3748 H   0  0  0  0  0  0  0  0  0  0  0  0
   35.6282   15.7837    4.2096 H   0  0  0  0  0  0  0  0  0  0  0  0
   34.5459   14.6088    3.4906 H   0  0  0  0  0  0  0  0  0  0  0  0
   31.2567   12.5888    6.8060 H   0  0  0  0  0  0  0  0  0  0  0  0
   28.3795   12.6864    8.8356 H   0  0  0  0  0  0  0  0  0  0  0  0
   29.3524   13.0262    7.4355 H   0  0  0  0  0  0  0  0  0  0  0  0
   27.5407   15.3364   10.0872 H   0  0  0  0  0  0  0  0  0  0  0  0
   27.9210   14.6233    8.5263 H   0  0  0  0  0  0  0  0  0  0  0  0
   28.6041   16.1741    8.8844 H   0  0  0  0  0  0  0  0  0  0  0  0
   29.4338   15.5495   11.8439 H   0  0  0  0  0  0  0  0  0  0  0  0
   30.6537   16.2257   10.6912 H   0  0  0  0  0  0  0  0  0  0  0  0
   30.9314   14.6923   11.5097 H   0  0  0  0  0  0  0  0  0  0  0  0
  1  2  1  0
  2  3  2  0
  3  4  1  0
  4  5  2  0
  5  6  1  0
  6  7  1  0
  7  8  1  0
  8  9  2  0
  8 10  1  0
 10 11  1  0
 11 12  1  0
 12 13  1  0
 13 14  1  0
 14 15  1  0
  5 16  1  0
 16 17  2  0
 17 18  1  0
 18 19  1  0
 19 20  1  0
 20 21  2  0
 20 22  1  0
 22 23  1  0
 22 24  1  0
 17  2  1  0
 15 10  1  0
  1 25  1  0
  1 26  1  0
  1 27  1  0
  3 28  1  0
  4 29  1  0
  7 30  1  0
  7 31  1  0
 11 32  1  0
 11 33  1  0
 12 34  1  0
 12 35  1  0
 14 36  1  0
 14 37  1  0
 15 38  1  0
 15 39  1  0
 16 40  1  0
 19 41  1  0
 19 42  1  0
 23 43  1  0
 23 44  1  0
 23 45  1  0
 24 46  1  0
 24 47  1  0
 24 48  1  0
M  END
