LIG
     RDKit          3D

 41 42  0  0  0  0  0  0  0  0999 V2000
   35.1727    8.3577    4.1579 C   0  0  0  0  0  0  0  0  0  0  0  0
   34.5901    9.4742    4.9714 C   0  0  0  0  0  0  0  0  0  0  0  0
   34.9855   10.6244    4.7841 O   0  0  0  0  0  0  0  0  0  0  0  0
   33.6071    9.0154    5.8672 N   0  0  0  0  0  0  0  0  0  0  0  0
   32.6221    9.8120    6.4899 C   0  0  0  0  0  0  0  0  0  0  0  0
   32.4444   11.0310    5.9346 C   0  0  0  0  0  0  0  0  0  0  0  0
   31.4688   11.8673    6.4099 C   0  0  0  0  0  0  0  0  0  0  0  0
   31.3599   12.9759    5.6588 O   0  0  0  0  0  0  0  0  0  0  0  0
   32.1801   13.8754    6.2965 C   0  0  0  0  0  0  0  0  0  0  0  0
   33.4993   13.7280    7.0480 C   0  0  0  0  0  0  0  0  0  0  0  0
   33.4573   13.5855    8.2750 O   0  0  0  0  0  0  0  0  0  0  0  0
   34.6617   13.8710    6.3256 N   0  0  0  0  0  0  0  0  0  0  0  0
   35.8632   14.0891    7.1066 C   0  0  0  0  0  0  0  0  0  0  0  0
   37.0817   13.6122    6.3323 C   0  0  0  0  0  0  0  0  0  0  0  0
   37.2048   14.3713    5.1205 O   0  0  0  0  0  0  0  0  0  0  0  0
   36.0958   14.0565    4.2672 C   0  0  0  0  0  0  0  0  0  0  0  0
   34.7413   14.3311    4.9328 C   0  0  0  0  0  0  0  0  0  0  0  0
   30.6783   11.6258    7.5079 C   0  0  0  0  0  0  0  0  0  0  0  0
   30.8191   10.3958    8.0809 C   0  0  0  0  0  0  0  0  0  0  0  0
   31.7192    9.4612    7.5245 C   0  0  0  0  0  0  0  0  0  0  0  0
   31.5550    8.1153    8.1077 C   0  0  0  0  0  0  0  0  0  0  0  0
   34.3815    7.8240    3.6256 H   0  0  0  0  0  0  0  0  0  0  0  0
   35.7252    7.6706    4.8030 H   0  0  0  0  0  0  0  0  0  0  0  0
   35.8657    8.7663    3.4162 H   0  0  0  0  0  0  0  0  0  0  0  0
   33.6167    8.0162    6.0759 H   0  0  0  0  0  0  0  0  0  0  0  0
   32.9831   11.3679    5.0577 H   0  0  0  0  0  0  0  0  0  0  0  0
   31.5336   14.2208    7.1119 H   0  0  0  0  0  0  0  0  0  0  0  0
   32.3342   14.6414    5.5401 H   0  0  0  0  0  0  0  0  0  0  0  0
   35.8973   15.1657    7.2924 H   0  0  0  0  0  0  0  0  0  0  0  0
   35.8106   13.5874    8.0766 H   0  0  0  0  0  0  0  0  0  0  0  0
   38.0008   13.7296    6.9115 H   0  0  0  0  0  0  0  0  0  0  0  0
   37.0043   12.5488    6.0806 H   0  0  0  0  0  0  0  0  0  0  0  0
   36.1904   14.6533    3.3543 H   0  0  0  0  0  0  0  0  0  0  0  0
   36.1720   13.0030    3.9733 H   0  0  0  0  0  0  0  0  0  0  0  0
   34.5637   15.4065    4.9553 H   0  0  0  0  0  0  0  0  0  0  0  0
   33.9460   13.8719    4.3378 H   0  0  0  0  0  0  0  0  0  0  0  0
   29.9469   12.3373    7.8689 H   0  0  0  0  0  0  0  0  0  0  0  0
   30.1761   10.1158    8.9117 H   0  0  0  0  0  0  0  0  0  0  0  0
   31.9360    7.4145    7.3833 H   0  0  0  0  0  0  0  0  0  0  0  0
   32.0771    8.0084    9.0520 H   0  0  0  0  0  0  0  0  0  0  0  0
   30.4956    7.8830    8.2651 H   0  0  0  0  0  0  0  0  0  0  0  0
  1  2  1  0
  2  3  2  0
  2  4  1  0
  4  5  1  0
  5  6  2  0
  6  7  1  0
  7  8  1  0
  8  9  1  0
  9 10  1  0
 10 11  2  0
 10 12  1  0
 12 13  1  0
 13 14  1  0
 14 15  1  0
 15 16  1  0
 16 17  1  0
  7 18  2  0
 18 19  1  0
 19 20  2  0
 20 21  1  0
 20  5  1  0
 17 12  1  0
  1 22  1  0
  1 23  1  0
  1 24  1  0
  4 25  1  0
  6 26  1  0
  9 27  1  0
  9 28  1  0
 13 29  1  0
 13 30  1  0
 14 31  1  0
 14 32  1  0
 16 33  1  0
 16 34  1  0
 17 35  1  0
 17 36  1  0
 18 37  1  0
 19 38  1  0
 21 39  1  0
 21 40  1  0
 21 41  1  0
M  END
