LIG
     RDKit          3D

 45 46  0  0  0  0  0  0  0  0999 V2000
   28.5440   14.6273   10.7869 C   0  0  0  0  0  0  0  0  0  0  0  0
   29.9099   14.8144   10.3593 N   0  0  0  0  0  0  0  0  0  0  0  0
   30.7988   15.5154   11.2702 C   0  0  0  0  0  0  0  0  0  0  0  0
   30.5073   13.9377    9.4575 C   0  0  0  0  0  0  0  0  0  0  0  0
   31.7383   13.8470    9.4126 O   0  0  0  0  0  0  0  0  0  0  0  0
   29.6102   13.1358    8.4863 C   0  0  0  0  0  0  0  0  0  0  0  0
   29.7227   11.7232    8.5637 O   0  0  0  0  0  0  0  0  0  0  0  0
   30.7815   11.0836    7.9950 C   0  0  0  0  0  0  0  0  0  0  0  0
   31.7763   11.7221    7.2665 C   0  0  0  0  0  0  0  0  0  0  0  0
   32.7430   10.9860    6.5901 C   0  0  0  0  0  0  0  0  0  0  0  0
   33.7912   11.5907    5.9653 O   0  0  0  0  0  0  0  0  0  0  0  0
   33.4022   12.3675    4.8475 C   0  0  0  0  0  0  0  0  0  0  0  0
   33.1647   13.8150    5.2132 C   0  0  0  0  0  0  0  0  0  0  0  0
   32.0282   14.2275    5.4364 O   0  0  0  0  0  0  0  0  0  0  0  0
   34.2712   14.6216    5.3185 N   0  0  0  0  0  0  0  0  0  0  0  0
   34.9290   14.6983    6.6236 C   0  0  0  0  0  0  0  0  0  0  0  0
   36.2134   13.8752    6.6285 C   0  0  0  0  0  0  0  0  0  0  0  0
   37.1010   14.3352    5.5949 O   0  0  0  0  0  0  0  0  0  0  0  0
   36.5072   14.1129    4.3106 C   0  0  0  0  0  0  0  0  0  0  0  0
   35.1593   14.8274    4.1724 C   0  0  0  0  0  0  0  0  0  0  0  0
   32.7326    9.6005    6.6326 C   0  0  0  0  0  0  0  0  0  0  0  0
   31.7990    8.9562    7.4375 C   0  0  0  0  0  0  0  0  0  0  0  0
   30.8556    9.6946    8.1392 C   0  0  0  0  0  0  0  0  0  0  0  0
   30.0489    9.0341    8.9818 F   0  0  0  0  0  0  0  0  0  0  0  0
   27.8888   15.1611   10.0944 H   0  0  0  0  0  0  0  0  0  0  0  0
   28.2543   13.5779   10.7846 H   0  0  0  0  0  0  0  0  0  0  0  0
   28.4244   14.9997   11.8056 H   0  0  0  0  0  0  0  0  0  0  0  0
   31.7662   15.7286   10.8091 H   0  0  0  0  0  0  0  0  0  0  0  0
   30.3704   16.4562   11.6072 H   0  0  0  0  0  0  0  0  0  0  0  0
   30.9480   14.8812   12.1374 H   0  0  0  0  0  0  0  0  0  0  0  0
   28.5560   13.3687    8.6527 H   0  0  0  0  0  0  0  0  0  0  0  0
   29.7946   13.4989    7.4672 H   0  0  0  0  0  0  0  0  0  0  0  0
   31.8354   12.7986    7.2415 H   0  0  0  0  0  0  0  0  0  0  0  0
   34.2063   12.3006    4.1096 H   0  0  0  0  0  0  0  0  0  0  0  0
   32.5220   11.9689    4.3388 H   0  0  0  0  0  0  0  0  0  0  0  0
   34.2527   14.3454    7.4091 H   0  0  0  0  0  0  0  0  0  0  0  0
   35.1657   15.7452    6.8018 H   0  0  0  0  0  0  0  0  0  0  0  0
   36.7186   13.9532    7.5946 H   0  0  0  0  0  0  0  0  0  0  0  0
   36.0116   12.8178    6.4487 H   0  0  0  0  0  0  0  0  0  0  0  0
   36.4012   13.0330    4.1574 H   0  0  0  0  0  0  0  0  0  0  0  0
   37.2028   14.4802    3.5492 H   0  0  0  0  0  0  0  0  0  0  0  0
   35.3432   15.8975    4.0905 H   0  0  0  0  0  0  0  0  0  0  0  0
   34.6537   14.5191    3.2505 H   0  0  0  0  0  0  0  0  0  0  0  0
   33.4900    9.0221    6.1088 H   0  0  0  0  0  0  0  0  0  0  0  0
   31.8088    7.8795    7.5551 H   0  0  0  0  0  0  0  0  0  0  0  0
  1  2  1  0
  2  3  1  0
  2  4  1  0
  4  5  2  0
  4  6  1  0
  6  7  1  0
  7  8  1  0
  8  9  2  0
  9 10  1  0
 10 11  1  0
 11 12  1  0
 12 13  1  0
 13 14  2  0
 13 15  1  0
 15 16  1  0
 16 17  1  0
 17 18  1  0
 18 19  1  0
 19 20  1  0
 10 21  2  0
 21 22  1  0
 22 23  2  0
 23 24  1  0
 23  8  1  0
 20 15  1  0
  1 25  1  0
  1 26  1  0
  1 27  1  0
  3 28  1  0
  3 29  1  0
  3 30  1  0
  6 31  1  0
  6 32  1  0
  9 33  1  0
 12 34  1  0
 12 35  1  0
 16 36  1  0
 16 37  1  0
 17 38  1  0
 17 39  1  0
 19 40  1  0
 19 41  1  0
 20 42  1  0
 20 43  1  0
 21 44  1  0
 22 45  1  0
M  END
