LIG
     RDKit          3D

 38 39  0  0  0  0  0  0  0  0999 V2000
   30.8102    8.7291    8.5115 C   0  0  0  0  0  0  0  0  0  0  0  0
   31.5371    9.6184    7.5456 C   0  0  0  0  0  0  0  0  0  0  0  0
   32.4988    9.0491    6.7016 C   0  0  0  0  0  0  0  0  0  0  0  0
   33.2322    9.8006    5.7794 C   0  0  0  0  0  0  0  0  0  0  0  0
   33.0073   11.1643    5.6790 C   0  0  0  0  0  0  0  0  0  0  0  0
   33.7417   11.9052    4.7417 N   0  0  0  0  0  0  0  0  0  0  0  0
   33.7204   13.2784    4.5633 C   0  0  0  0  0  0  0  0  0  0  0  0
   33.1366   14.1019    5.2636 O   0  0  0  0  0  0  0  0  0  0  0  0
   34.5199   13.7160    3.3318 C   0  0  0  0  0  0  0  0  0  0  0  0
   33.6658   14.5960    2.4310 C   0  0  0  0  0  0  0  0  0  0  0  0
   34.2474   14.3224    1.0699 C   0  0  0  0  0  0  0  0  0  0  0  0
   34.5908   12.8544    1.1650 C   0  0  0  0  0  0  0  0  0  0  0  0
   34.9556   12.6001    2.5291 O   0  0  0  0  0  0  0  0  0  0  0  0
   32.0247   11.7315    6.4825 C   0  0  0  0  0  0  0  0  0  0  0  0
   31.2663   10.9712    7.3835 C   0  0  0  0  0  0  0  0  0  0  0  0
   30.2708   11.6136    8.1356 N   0  0  0  0  0  0  0  0  0  0  0  0
   29.5431   12.6790    7.6364 C   0  0  0  0  0  0  0  0  0  0  0  0
   29.4234   12.9469    6.4437 O   0  0  0  0  0  0  0  0  0  0  0  0
   28.8846   13.4742    8.7197 C   0  0  0  0  0  0  0  0  0  0  0  0
   28.6308   14.8338    8.2826 C   0  0  0  0  0  0  0  0  0  0  0  0
   28.4348   15.9453    8.0305 N   0  0  0  0  0  0  0  0  0  0  0  0
   29.9239    8.2910    8.0510 H   0  0  0  0  0  0  0  0  0  0  0  0
   31.4757    7.9404    8.8611 H   0  0  0  0  0  0  0  0  0  0  0  0
   30.4985    9.2652    9.4100 H   0  0  0  0  0  0  0  0  0  0  0  0
   32.7027    7.9915    6.7922 H   0  0  0  0  0  0  0  0  0  0  0  0
   33.9804    9.3018    5.1692 H   0  0  0  0  0  0  0  0  0  0  0  0
   34.3836   11.4098    4.1272 H   0  0  0  0  0  0  0  0  0  0  0  0
   35.4177   14.2427    3.6742 H   0  0  0  0  0  0  0  0  0  0  0  0
   32.6132   14.2870    2.4565 H   0  0  0  0  0  0  0  0  0  0  0  0
   33.7082   15.6524    2.7129 H   0  0  0  0  0  0  0  0  0  0  0  0
   33.5667   14.5508    0.2458 H   0  0  0  0  0  0  0  0  0  0  0  0
   35.1619   14.9118    0.9341 H   0  0  0  0  0  0  0  0  0  0  0  0
   35.4145   12.5701    0.5043 H   0  0  0  0  0  0  0  0  0  0  0  0
   33.7229   12.2286    0.9305 H   0  0  0  0  0  0  0  0  0  0  0  0
   31.8235   12.7931    6.4110 H   0  0  0  0  0  0  0  0  0  0  0  0
   29.9022   11.1542    8.9643 H   0  0  0  0  0  0  0  0  0  0  0  0
   27.9596   12.9774    9.0101 H   0  0  0  0  0  0  0  0  0  0  0  0
   29.5492   13.5256    9.5861 H   0  0  0  0  0  0  0  0  0  0  0  0
  1  2  1  0
  2  3  2  0
  3  4  1  0
  4  5  2  0
  5  6  1  0
  6  7  1  0
  7  8  2  0
  7  9  1  0
  9 10  1  0
 10 11  1  0
 11 12  1  0
 12 13  1  0
  5 14  1  0
 14 15  2  0
 15 16  1  0
 16 17  1  0
 17 18  2  0
 17 19  1  0
 19 20  1  0
 20 21  3  0
 15  2  1  0
 13  9  1  0
  1 22  1  0
  1 23  1  0
  1 24  1  0
  3 25  1  0
  4 26  1  0
  6 27  1  0
  9 28  1  0
 10 29  1  0
 10 30  1  0
 11 31  1  0
 11 32  1  0
 12 33  1  0
 12 34  1  0
 14 35  1  0
 16 36  1  0
 19 37  1  0
 19 38  1  0
M  END
