LIG
     RDKit          3D

 42 43  0  0  0  0  0  0  0  0999 V2000
   31.3813   14.5013   10.2387 C   0  0  0  0  0  0  0  0  0  0  0  0
   31.6045   13.4796    9.1892 C   0  0  0  0  0  0  0  0  0  0  0  0
   30.5165   12.7082    8.8775 C   0  0  0  0  0  0  0  0  0  0  0  0
   30.5787   11.7028    7.9332 C   0  0  0  0  0  0  0  0  0  0  0  0
   29.3336   11.4475    7.3707 N   0  0  0  0  0  0  0  0  0  0  0  0
   28.9592   12.5293    6.5597 C   0  0  0  0  0  0  0  0  0  0  0  0
   29.6009   12.8961    5.5798 O   0  0  0  0  0  0  0  0  0  0  0  0
   27.7670   13.2942    7.0322 C   0  0  0  0  0  0  0  0  0  0  0  0
   28.1657   14.5784    7.5990 C   0  0  0  0  0  0  0  0  0  0  0  0
   28.4162   15.5669    8.1501 N   0  0  0  0  0  0  0  0  0  0  0  0
   31.7390   11.4025    7.2722 C   0  0  0  0  0  0  0  0  0  0  0  0
   32.8024   12.2575    7.4992 C   0  0  0  0  0  0  0  0  0  0  0  0
   33.9027   12.1624    6.7081 O   0  0  0  0  0  0  0  0  0  0  0  0
   33.5674   12.5233    5.3809 C   0  0  0  0  0  0  0  0  0  0  0  0
   33.3616   14.0146    5.2027 C   0  0  0  0  0  0  0  0  0  0  0  0
   32.2563   14.4851    4.9427 O   0  0  0  0  0  0  0  0  0  0  0  0
   34.5040   14.7867    5.2052 N   0  0  0  0  0  0  0  0  0  0  0  0
   35.4645   14.7384    6.3048 C   0  0  0  0  0  0  0  0  0  0  0  0
   36.6454   13.8357    5.9687 C   0  0  0  0  0  0  0  0  0  0  0  0
   37.2875   14.3137    4.7765 O   0  0  0  0  0  0  0  0  0  0  0  0
   36.3752   14.2618    3.6657 C   0  0  0  0  0  0  0  0  0  0  0  0
   35.1056   15.0916    3.9095 C   0  0  0  0  0  0  0  0  0  0  0  0
   32.7722   13.2552    8.4861 C   0  0  0  0  0  0  0  0  0  0  0  0
   30.7817   15.3246    9.8468 H   0  0  0  0  0  0  0  0  0  0  0  0
   32.3195   14.9085   10.6065 H   0  0  0  0  0  0  0  0  0  0  0  0
   30.8362   14.0939   11.0924 H   0  0  0  0  0  0  0  0  0  0  0  0
   29.5660   12.9813    9.3295 H   0  0  0  0  0  0  0  0  0  0  0  0
   28.6510   11.2100    8.0908 H   0  0  0  0  0  0  0  0  0  0  0  0
   27.2518   12.7056    7.7858 H   0  0  0  0  0  0  0  0  0  0  0  0
   27.0819   13.4190    6.1882 H   0  0  0  0  0  0  0  0  0  0  0  0
   31.7572   10.6519    6.4917 H   0  0  0  0  0  0  0  0  0  0  0  0
   34.3945   12.2086    4.7361 H   0  0  0  0  0  0  0  0  0  0  0  0
   32.6976   11.9886    4.9830 H   0  0  0  0  0  0  0  0  0  0  0  0
   35.8237   15.7560    6.4518 H   0  0  0  0  0  0  0  0  0  0  0  0
   34.9843   14.4240    7.2255 H   0  0  0  0  0  0  0  0  0  0  0  0
   37.3820   13.8250    6.7747 H   0  0  0  0  0  0  0  0  0  0  0  0
   36.3473   12.7949    5.8113 H   0  0  0  0  0  0  0  0  0  0  0  0
   36.9020   14.6408    2.7840 H   0  0  0  0  0  0  0  0  0  0  0  0
   36.1257   13.2129    3.4689 H   0  0  0  0  0  0  0  0  0  0  0  0
   35.3811   16.1437    3.8860 H   0  0  0  0  0  0  0  0  0  0  0  0
   34.3807   14.9196    3.1059 H   0  0  0  0  0  0  0  0  0  0  0  0
   33.6411   13.8747    8.6770 H   0  0  0  0  0  0  0  0  0  0  0  0
  1  2  1  0
  2  3  2  0
  3  4  1  0
  4  5  1  0
  5  6  1  0
  6  7  2  0
  6  8  1  0
  8  9  1  0
  9 10  3  0
  4 11  2  0
 11 12  1  0
 12 13  1  0
 13 14  1  0
 14 15  1  0
 15 16  2  0
 15 17  1  0
 17 18  1  0
 18 19  1  0
 19 20  1  0
 20 21  1  0
 21 22  1  0
 12 23  2  0
 23  2  1  0
 22 17  1  0
  1 24  1  0
  1 25  1  0
  1 26  1  0
  3 27  1  0
  5 28  1  0
  8 29  1  0
  8 30  1  0
 11 31  1  0
 14 32  1  0
 14 33  1  0
 18 34  1  0
 18 35  1  0
 19 36  1  0
 19 37  1  0
 21 38  1  0
 21 39  1  0
 22 40  1  0
 22 41  1  0
 23 42  1  0
M  END
