LIG
     RDKit          3D

 27 27  0  0  0  0  0  0  0  0999 V2000
   29.2041   14.5514    8.7499 C   0  0  0  0  0  0  0  0  0  0  0  0
   29.5928   13.3574    7.9246 C   0  0  0  0  0  0  0  0  0  0  0  0
   28.7528   12.7684    7.2474 O   0  0  0  0  0  0  0  0  0  0  0  0
   30.9411   13.0531    7.9693 N   0  0  0  0  0  0  0  0  0  0  0  0
   31.4648   11.8253    7.5105 C   0  0  0  0  0  0  0  0  0  0  0  0
   30.7945   10.6375    7.8141 C   0  0  0  0  0  0  0  0  0  0  0  0
   31.2959    9.4092    7.3900 C   0  0  0  0  0  0  0  0  0  0  0  0
   32.4164    9.3702    6.5685 C   0  0  0  0  0  0  0  0  0  0  0  0
   33.0780   10.5456    6.2502 C   0  0  0  0  0  0  0  0  0  0  0  0
   34.1821   10.4803    5.4902 F   0  0  0  0  0  0  0  0  0  0  0  0
   32.6668   11.7666    6.7876 C   0  0  0  0  0  0  0  0  0  0  0  0
   33.5012   12.8897    6.5893 N   0  0  0  0  0  0  0  0  0  0  0  0
   34.1079   13.4812    7.6894 C   0  0  0  0  0  0  0  0  0  0  0  0
   33.8203   13.2357    8.8604 O   0  0  0  0  0  0  0  0  0  0  0  0
   35.2092   14.4643    7.3039 C   0  0  0  0  0  0  0  0  0  0  0  0
   35.1369   14.8886    5.9506 O   0  0  0  0  0  0  0  0  0  0  0  0
   28.9068   15.3678    8.0867 H   0  0  0  0  0  0  0  0  0  0  0  0
   30.0307   14.8874    9.3822 H   0  0  0  0  0  0  0  0  0  0  0  0
   28.3664   14.2803    9.3986 H   0  0  0  0  0  0  0  0  0  0  0  0
   31.6007   13.8126    8.0690 H   0  0  0  0  0  0  0  0  0  0  0  0
   29.8934   10.6511    8.4207 H   0  0  0  0  0  0  0  0  0  0  0  0
   30.7885    8.4889    7.6764 H   0  0  0  0  0  0  0  0  0  0  0  0
   32.8081    8.4272    6.2085 H   0  0  0  0  0  0  0  0  0  0  0  0
   34.1642   12.8198    5.8164 H   0  0  0  0  0  0  0  0  0  0  0  0
   36.1767   13.9837    7.4693 H   0  0  0  0  0  0  0  0  0  0  0  0
   35.1117   15.3269    7.9588 H   0  0  0  0  0  0  0  0  0  0  0  0
   35.1687   15.8723    5.9349 H   0  0  0  0  0  0  0  0  0  0  0  0
  1  2  1  0
  2  3  2  0
  2  4  1  0
  4  5  1  0
  5  6  2  0
  6  7  1  0
  7  8  2  0
  8  9  1  0
  9 10  1  0
  9 11  2  0
 11 12  1  0
 12 13  1  0
 13 14  2  0
 13 15  1  0
 15 16  1  0
 11  5  1  0
  1 17  1  0
  1 18  1  0
  1 19  1  0
  4 20  1  0
  6 21  1  0
  7 22  1  0
  8 23  1  0
 12 24  1  0
 15 25  1  0
 15 26  1  0
 16 27  1  0
M  END
