LIG
     RDKit          3D

 28 28  0  0  0  0  0  0  0  0999 V2000
   29.2397   14.5720    8.7715 C   0  0  0  0  0  0  0  0  0  0  0  0
   29.5935   13.3729    7.9391 C   0  0  0  0  0  0  0  0  0  0  0  0
   28.7324   12.8082    7.2672 O   0  0  0  0  0  0  0  0  0  0  0  0
   30.9321   13.0308    7.9767 N   0  0  0  0  0  0  0  0  0  0  0  0
   31.4163   11.7751    7.5527 C   0  0  0  0  0  0  0  0  0  0  0  0
   30.7024   10.6242    7.8890 C   0  0  0  0  0  0  0  0  0  0  0  0
   31.1601    9.3661    7.5120 C   0  0  0  0  0  0  0  0  0  0  0  0
   32.2790    9.2562    6.6954 C   0  0  0  0  0  0  0  0  0  0  0  0
   32.9839   10.3936    6.3314 C   0  0  0  0  0  0  0  0  0  0  0  0
   34.0931   10.2859    5.5337 O   0  0  0  0  0  0  0  0  0  0  0  0
   32.6195   11.6448    6.8418 C   0  0  0  0  0  0  0  0  0  0  0  0
   33.5171   12.7143    6.6249 N   0  0  0  0  0  0  0  0  0  0  0  0
   34.0784   13.3889    7.6949 C   0  0  0  0  0  0  0  0  0  0  0  0
   33.7236   13.2203    8.8649 O   0  0  0  0  0  0  0  0  0  0  0  0
   35.1782   14.3789    7.3629 C   0  0  0  0  0  0  0  0  0  0  0  0
   35.4789   14.5868    5.5890 S   0  0  0  0  0  0  0  0  0  0  0  0
   28.9398   15.3924    8.1143 H   0  0  0  0  0  0  0  0  0  0  0  0
   28.4115   14.3129    9.4371 H   0  0  0  0  0  0  0  0  0  0  0  0
   30.0836   14.8962    9.3866 H   0  0  0  0  0  0  0  0  0  0  0  0
   31.6224   13.7595    8.0969 H   0  0  0  0  0  0  0  0  0  0  0  0
   29.8020   10.6920    8.4898 H   0  0  0  0  0  0  0  0  0  0  0  0
   30.6149    8.4759    7.8227 H   0  0  0  0  0  0  0  0  0  0  0  0
   32.6079    8.2740    6.3859 H   0  0  0  0  0  0  0  0  0  0  0  0
   34.2648    9.3391    5.3747 H   0  0  0  0  0  0  0  0  0  0  0  0
   34.2133   12.5174    5.9038 H   0  0  0  0  0  0  0  0  0  0  0  0
   34.8811   15.3404    7.7788 H   0  0  0  0  0  0  0  0  0  0  0  0
   36.1013   14.0459    7.8448 H   0  0  0  0  0  0  0  0  0  0  0  0
   35.5218   15.9358    5.5930 H   0  0  0  0  0  0  0  0  0  0  0  0
  1  2  1  0
  2  3  2  0
  2  4  1  0
  4  5  1  0
  5  6  2  0
  6  7  1  0
  7  8  2  0
  8  9  1  0
  9 10  1  0
  9 11  2  0
 11 12  1  0
 12 13  1  0
 13 14  2  0
 13 15  1  0
 15 16  1  0
 11  5  1  0
  1 17  1  0
  1 18  1  0
  1 19  1  0
  4 20  1  0
  6 21  1  0
  7 22  1  0
  8 23  1  0
 10 24  1  0
 12 25  1  0
 15 26  1  0
 15 27  1  0
 16 28  1  0
M  END
