LIG
     RDKit          3D

 37 37  0  0  0  0  0  0  0  0999 V2000
   30.1570    8.4110    8.0350 C   0  0  0  0  0  0  0  0  0  0  0  0
   31.0170    9.5590    7.5720 C   0  0  0  0  0  0  0  0  0  0  0  0
   32.1560    9.3390    6.8090 C   0  0  0  0  0  0  0  0  0  0  0  0
   33.0110   10.3720    6.4380 C   0  0  0  0  0  0  0  0  0  0  0  0
   32.7080   11.6650    6.8730 C   0  0  0  0  0  0  0  0  0  0  0  0
   33.6520   12.7090    6.6590 N   0  0  0  0  0  0  0  0  0  0  0  0
   34.4250   13.2280    7.6390 C   0  0  0  0  0  0  0  0  0  0  0  0
   34.9120   12.5690    8.5560 O   0  0  0  0  0  0  0  0  0  0  0  0
   34.6680   14.7180    7.5670 C   0  0  0  0  0  0  0  0  0  0  0  0
   35.0470   15.1300    6.2680 O   0  0  0  0  0  0  0  0  0  0  0  0
   36.3911   14.7888    5.9388 C   0  0  0  0  0  0  0  0  0  0  0  0
   36.5655   13.3104    5.5477 C   0  0  0  0  0  0  0  0  0  0  0  0
   35.5851   12.5627    5.5133 O   0  0  0  0  0  0  0  0  0  0  0  0
   37.8502   12.8641    5.2562 N   0  0  0  0  0  0  0  0  0  0  0  0
   39.0084   13.7298    5.0987 C   0  0  0  0  0  0  0  0  0  0  0  0
   38.0366   11.4799    4.8467 C   0  0  0  0  0  0  0  0  0  0  0  0
   31.5450   11.9340    7.6020 C   0  0  0  0  0  0  0  0  0  0  0  0
   30.7220   10.8640    7.9390 C   0  0  0  0  0  0  0  0  0  0  0  0
   29.4280   11.6110    9.1450 O   0  0  0  0  0  0  0  0  0  0  0  0
   29.8060    8.5950    9.0545 H   0  0  0  0  0  0  0  0  0  0  0  0
   30.7142    7.4690    8.0250 H   0  0  0  0  0  0  0  0  0  0  0  0
   29.2977    8.2869    7.3694 H   0  0  0  0  0  0  0  0  0  0  0  0
   32.4019    8.3147    6.4780 H   0  0  0  0  0  0  0  0  0  0  0  0
   33.8749   10.1664    5.8389 H   0  0  0  0  0  0  0  0  0  0  0  0
   33.7491   13.0530    5.7327 H   0  0  0  0  0  0  0  0  0  0  0  0
   33.7357   15.2399    7.8226 H   0  0  0  0  0  0  0  0  0  0  0  0
   35.4213   14.9713    8.3262 H   0  0  0  0  0  0  0  0  0  0  0  0
   36.6666   15.3955    5.0686 H   0  0  0  0  0  0  0  0  0  0  0  0
   37.0508   15.0457    6.7750 H   0  0  0  0  0  0  0  0  0  0  0  0
   39.8694   13.2635    5.5835 H   0  0  0  0  0  0  0  0  0  0  0  0
   38.8579   14.7167    5.5358 H   0  0  0  0  0  0  0  0  0  0  0  0
   39.2102   13.8443    4.0298 H   0  0  0  0  0  0  0  0  0  0  0  0
   37.1610   10.8646    5.0632 H   0  0  0  0  0  0  0  0  0  0  0  0
   38.2289   11.4545    3.7693 H   0  0  0  0  0  0  0  0  0  0  0  0
   38.8964   11.0657    5.3823 H   0  0  0  0  0  0  0  0  0  0  0  0
   31.2863   12.9312    7.8944 H   0  0  0  0  0  0  0  0  0  0  0  0
   29.1837   10.7727    9.4446 H   0  0  0  0  0  0  0  0  0  0  0  0
  1  2  1  0
  2  3  4  0
  3  4  4  0
  4  5  4  0
  5  6  1  0
  6  7  1  0
  7  8  2  0
  7  9  1  0
  9 10  1  0
 10 11  1  0
 11 12  1  0
 12 13  2  0
 12 14  1  0
 14 15  1  0
 14 16  1  0
  5 17  4  0
 17 18  4  0
 18 19  1  0
 18  2  4  0
  1 20  1  0
  1 21  1  0
  1 22  1  0
  3 23  1  0
  4 24  1  0
  6 25  1  0
  9 26  1  0
  9 27  1  0
 11 28  1  0
 11 29  1  0
 15 30  1  0
 15 31  1  0
 15 32  1  0
 16 33  1  0
 16 34  1  0
 16 35  1  0
 17 36  1  0
 19 37  1  0
M  END
