LIG
     RDKit          3D

 38 39  0  0  0  0  0  0  0  0999 V2000
   35.3036    8.8410    6.0300 C   0  0  0  0  0  0  0  0  0  0  0  0
   34.2546    9.8799    6.2471 C   0  0  0  0  0  0  0  0  0  0  0  0
   34.4816   10.9176    7.1370 C   0  0  0  0  0  0  0  0  0  0  0  0
   33.5716   11.9584    7.1946 C   0  0  0  0  0  0  0  0  0  0  0  0
   32.3491   11.8605    6.5173 C   0  0  0  0  0  0  0  0  0  0  0  0
   31.5189   12.9695    6.3905 N   0  0  0  0  0  0  0  0  0  0  0  0
   31.5655   14.0382    7.2492 C   0  0  0  0  0  0  0  0  0  0  0  0
   31.7726   13.9096    8.4474 O   0  0  0  0  0  0  0  0  0  0  0  0
   31.5359   15.3766    6.5919 C   0  0  0  0  0  0  0  0  0  0  0  0
   30.3380   15.6665    5.8282 C   0  0  0  0  0  0  0  0  0  0  0  0
   29.4503   15.9278    5.1287 N   0  0  0  0  0  0  0  0  0  0  0  0
   32.0557   10.7601    5.7398 C   0  0  0  0  0  0  0  0  0  0  0  0
   33.1533    9.9877    5.3950 C   0  0  0  0  0  0  0  0  0  0  0  0
   33.4466   10.1348    4.0011 N   0  0  0  0  0  0  0  0  0  0  0  0
   34.3897   11.1661    3.7352 C   0  0  0  0  0  0  0  0  0  0  0  0
   35.5685   11.1163    4.0854 O   0  0  0  0  0  0  0  0  0  0  0  0
   33.8005   12.4553    3.0971 C   0  0  0  0  0  0  0  0  0  0  0  0
   33.0187   12.2311    1.8138 C   0  0  0  0  0  0  0  0  0  0  0  0
   33.3424   13.4541    0.9901 C   0  0  0  0  0  0  0  0  0  0  0  0
   34.7706   13.7154    1.3919 C   0  0  0  0  0  0  0  0  0  0  0  0
   34.8217   13.4194    2.7883 O   0  0  0  0  0  0  0  0  0  0  0  0
   36.2205    9.2696    5.6166 H   0  0  0  0  0  0  0  0  0  0  0  0
   35.5482    8.3586    6.9830 H   0  0  0  0  0  0  0  0  0  0  0  0
   34.9519    8.0538    5.3543 H   0  0  0  0  0  0  0  0  0  0  0  0
   35.3969   10.9590    7.7219 H   0  0  0  0  0  0  0  0  0  0  0  0
   33.8328   12.8246    7.7977 H   0  0  0  0  0  0  0  0  0  0  0  0
   30.9085   13.0244    5.5841 H   0  0  0  0  0  0  0  0  0  0  0  0
   32.3979   15.4056    5.9108 H   0  0  0  0  0  0  0  0  0  0  0  0
   31.7491   16.1586    7.3278 H   0  0  0  0  0  0  0  0  0  0  0  0
   31.1614   10.7589    5.1243 H   0  0  0  0  0  0  0  0  0  0  0  0
   32.6043   10.2471    3.4519 H   0  0  0  0  0  0  0  0  0  0  0  0
   33.1585   12.9277    3.8476 H   0  0  0  0  0  0  0  0  0  0  0  0
   33.3667   11.3283    1.2970 H   0  0  0  0  0  0  0  0  0  0  0  0
   31.9456   12.1122    1.9926 H   0  0  0  0  0  0  0  0  0  0  0  0
   33.2171   13.3029   -0.0850 H   0  0  0  0  0  0  0  0  0  0  0  0
   32.7028   14.2878    1.3027 H   0  0  0  0  0  0  0  0  0  0  0  0
   35.4660   13.0479    0.8713 H   0  0  0  0  0  0  0  0  0  0  0  0
   35.0773   14.7505    1.2199 H   0  0  0  0  0  0  0  0  0  0  0  0
  1  2  1  0
  2  3  2  0
  3  4  1  0
  4  5  2  0
  5  6  1  0
  6  7  1  0
  7  8  2  0
  7  9  1  0
  9 10  1  0
 10 11  3  0
  5 12  1  0
 12 13  2  0
 13 14  1  0
 14 15  1  0
 15 16  2  0
 15 17  1  0
 17 18  1  0
 18 19  1  0
 19 20  1  0
 20 21  1  0
 13  2  1  0
 21 17  1  0
  1 22  1  0
  1 23  1  0
  1 24  1  0
  3 25  1  0
  4 26  1  0
  6 27  1  0
  9 28  1  0
  9 29  1  0
 12 30  1  0
 14 31  1  0
 17 32  1  0
 18 33  1  0
 18 34  1  0
 19 35  1  0
 19 36  1  0
 20 37  1  0
 20 38  1  0
M  END
