LIG
     RDKit          3D

 36 36  0  0  0  0  0  0  0  0999 V2000
   33.0450   13.7676    8.6914 C   0  0  0  0  0  0  0  0  0  0  0  0
   32.6666   12.9569    7.5247 C   0  0  0  0  0  0  0  0  0  0  0  0
   31.3343   12.6883    7.3260 C   0  0  0  0  0  0  0  0  0  0  0  0
   30.9405   11.7255    6.5104 N   0  0  0  0  0  0  0  0  0  0  0  0
   31.8999   10.9064    6.0983 C   0  0  0  0  0  0  0  0  0  0  0  0
   31.6193    9.5776    6.1081 O   0  0  0  0  0  0  0  0  0  0  0  0
   31.3823    9.2136    7.4489 C   0  0  0  0  0  0  0  0  0  0  0  0
   30.0689    9.6209    8.1552 C   0  0  0  0  0  0  0  0  0  0  0  0
   29.5073   10.7038    8.1111 O   0  0  0  0  0  0  0  0  0  0  0  0
   29.5928    8.6590    9.0060 N   0  0  0  0  0  0  0  0  0  0  0  0
   30.4528    8.4499   10.0810 C   0  0  0  0  0  0  0  0  0  0  0  0
   29.0813    7.5572    8.3328 C   0  0  0  0  0  0  0  0  0  0  0  0
   33.1883   11.2743    5.9217 C   0  0  0  0  0  0  0  0  0  0  0  0
   33.5625   12.3796    6.6361 C   0  0  0  0  0  0  0  0  0  0  0  0
   34.8435   12.8447    6.3775 N   0  0  0  0  0  0  0  0  0  0  0  0
   35.4811   13.8161    7.1006 C   0  0  0  0  0  0  0  0  0  0  0  0
   35.7464   13.7800    8.2975 O   0  0  0  0  0  0  0  0  0  0  0  0
   35.8727   14.9624    6.2063 C   0  0  0  0  0  0  0  0  0  0  0  0
   35.0302   15.1209    5.0760 O   0  0  0  0  0  0  0  0  0  0  0  0
   33.5347   14.7037    8.4322 H   0  0  0  0  0  0  0  0  0  0  0  0
   32.1669   14.0510    9.2857 H   0  0  0  0  0  0  0  0  0  0  0  0
   33.6851   13.2032    9.3693 H   0  0  0  0  0  0  0  0  0  0  0  0
   30.5380   13.1718    7.8873 H   0  0  0  0  0  0  0  0  0  0  0  0
   31.5353    8.1341    7.4885 H   0  0  0  0  0  0  0  0  0  0  0  0
   32.1844    9.6028    8.0742 H   0  0  0  0  0  0  0  0  0  0  0  0
   31.1031    7.5901    9.9751 H   0  0  0  0  0  0  0  0  0  0  0  0
   29.8745    8.5031   10.9821 H   0  0  0  0  0  0  0  0  0  0  0  0
   31.0651    9.3234   10.0905 H   0  0  0  0  0  0  0  0  0  0  0  0
   28.5408    6.8364    8.8877 H   0  0  0  0  0  0  0  0  0  0  0  0
   28.4302    7.9291    7.5597 H   0  0  0  0  0  0  0  0  0  0  0  0
   29.9344    7.0328    7.9444 H   0  0  0  0  0  0  0  0  0  0  0  0
   33.9053   10.6362    5.4241 H   0  0  0  0  0  0  0  0  0  0  0  0
   35.1029   12.8120    5.3970 H   0  0  0  0  0  0  0  0  0  0  0  0
   35.8099   15.8638    6.8058 H   0  0  0  0  0  0  0  0  0  0  0  0
   36.8878   14.7964    5.8399 H   0  0  0  0  0  0  0  0  0  0  0  0
   34.9577   16.0985    4.9689 H   0  0  0  0  0  0  0  0  0  0  0  0
  1  2  1  0
  2  3  2  0
  3  4  1  0
  4  5  2  0
  5  6  1  0
  6  7  1  0
  7  8  1  0
  8  9  2  0
  8 10  1  0
 10 11  1  0
 10 12  1  0
  5 13  1  0
 13 14  2  0
 14 15  1  0
 15 16  1  0
 16 17  2  0
 16 18  1  0
 18 19  1  0
 14  2  1  0
  1 20  1  0
  1 21  1  0
  1 22  1  0
  3 23  1  0
  7 24  1  0
  7 25  1  0
 11 26  1  0
 11 27  1  0
 11 28  1  0
 12 29  1  0
 12 30  1  0
 12 31  1  0
 13 32  1  0
 15 33  1  0
 18 34  1  0
 18 35  1  0
 19 36  1  0
M  END
