LIG
     RDKit          3D

 27 27  0  0  0  0  0  0  0  0999 V2000
   34.2511   10.3985    3.4352 C   0  0  0  0  0  0  0  0  0  0  0  0
   34.1710   11.5262    4.4344 C   0  0  0  0  0  0  0  0  0  0  0  0
   35.1714   11.8679    5.0522 O   0  0  0  0  0  0  0  0  0  0  0  0
   32.8969   12.0764    4.5370 N   0  0  0  0  0  0  0  0  0  0  0  0
   32.1965   12.4982    5.7088 C   0  0  0  0  0  0  0  0  0  0  0  0
   30.8253   12.7697    5.6331 C   0  0  0  0  0  0  0  0  0  0  0  0
   29.9877   12.6194    6.7324 C   0  0  0  0  0  0  0  0  0  0  0  0
   30.5547   12.4508    7.9680 C   0  0  0  0  0  0  0  0  0  0  0  0
   31.9267   12.5922    8.0742 C   0  0  0  0  0  0  0  0  0  0  0  0
   32.7496   12.6172    6.9579 C   0  0  0  0  0  0  0  0  0  0  0  0
   34.0636   13.0229    7.0256 N   0  0  0  0  0  0  0  0  0  0  0  0
   34.7375   13.4776    8.1169 C   0  0  0  0  0  0  0  0  0  0  0  0
   34.4570   13.2424    9.2860 O   0  0  0  0  0  0  0  0  0  0  0  0
   35.9065   14.3264    7.6882 C   0  0  0  0  0  0  0  0  0  0  0  0
   35.6903   14.9936    6.4471 O   0  0  0  0  0  0  0  0  0  0  0  0
   33.5303   10.5322    2.6242 H   0  0  0  0  0  0  0  0  0  0  0  0
   35.2523   10.3763    2.9951 H   0  0  0  0  0  0  0  0  0  0  0  0
   34.0576    9.4521    3.9468 H   0  0  0  0  0  0  0  0  0  0  0  0
   32.3337   11.9793    3.7064 H   0  0  0  0  0  0  0  0  0  0  0  0
   30.3659   13.0401    4.6859 H   0  0  0  0  0  0  0  0  0  0  0  0
   28.9105   12.6964    6.6288 H   0  0  0  0  0  0  0  0  0  0  0  0
   29.9335   12.4017    8.8550 H   0  0  0  0  0  0  0  0  0  0  0  0
   32.3297   12.7938    9.0514 H   0  0  0  0  0  0  0  0  0  0  0  0
   34.5902   13.1067    6.1518 H   0  0  0  0  0  0  0  0  0  0  0  0
   36.0909   15.0675    8.4624 H   0  0  0  0  0  0  0  0  0  0  0  0
   36.7830   13.6797    7.5871 H   0  0  0  0  0  0  0  0  0  0  0  0
   35.2740   15.8587    6.6392 H   0  0  0  0  0  0  0  0  0  0  0  0
  1  2  1  0
  2  3  2  0
  2  4  1  0
  4  5  1  0
  5  6  2  0
  6  7  1  0
  7  8  2  0
  8  9  1  0
  9 10  2  0
 10 11  1  0
 11 12  1  0
 12 13  2  0
 12 14  1  0
 14 15  1  0
 10  5  1  0
  1 16  1  0
  1 17  1  0
  1 18  1  0
  4 19  1  0
  6 20  1  0
  7 21  1  0
  8 22  1  0
  9 23  1  0
 11 24  1  0
 14 25  1  0
 14 26  1  0
 15 27  1  0
M  END
