LIG
     RDKit          3D

 44 45  0  0  0  0  0  0  0  0999 V2000
   31.2529    8.6081    8.0772 C   0  0  0  0  0  0  0  0  0  0  0  0
   31.4262    9.9709    7.5108 C   0  0  0  0  0  0  0  0  0  0  0  0
   32.4227   10.3017    6.5719 C   0  0  0  0  0  0  0  0  0  0  0  0
   32.4724   11.5834    6.0299 C   0  0  0  0  0  0  0  0  0  0  0  0
   33.4485   11.9268    5.0712 N   0  0  0  0  0  0  0  0  0  0  0  0
   33.7006   13.2206    4.6400 C   0  0  0  0  0  0  0  0  0  0  0  0
   33.2530   14.2475    5.1475 O   0  0  0  0  0  0  0  0  0  0  0  0
   34.6226   13.3117    3.4228 C   0  0  0  0  0  0  0  0  0  0  0  0
   34.1130   14.3918    2.4717 C   0  0  0  0  0  0  0  0  0  0  0  0
   34.5836   13.8978    1.1320 C   0  0  0  0  0  0  0  0  0  0  0  0
   34.4358   12.4034    1.2874 C   0  0  0  0  0  0  0  0  0  0  0  0
   34.7106   12.0973    2.6619 O   0  0  0  0  0  0  0  0  0  0  0  0
   31.4681   12.4762    6.3872 C   0  0  0  0  0  0  0  0  0  0  0  0
   30.4895   12.1534    7.3183 C   0  0  0  0  0  0  0  0  0  0  0  0
   29.4691   13.0383    7.4607 O   0  0  0  0  0  0  0  0  0  0  0  0
   29.1895   13.4914    8.7721 C   0  0  0  0  0  0  0  0  0  0  0  0
   30.3403   14.1140    9.5986 C   0  0  0  0  0  0  0  0  0  0  0  0
   31.5338   13.9148    9.3621 O   0  0  0  0  0  0  0  0  0  0  0  0
   29.9522   14.9888   10.6103 N   0  0  0  0  0  0  0  0  0  0  0  0
   28.7296   14.7260   11.3376 C   0  0  0  0  0  0  0  0  0  0  0  0
   30.9821   15.7172   11.3232 C   0  0  0  0  0  0  0  0  0  0  0  0
   30.4958   10.9187    7.9151 C   0  0  0  0  0  0  0  0  0  0  0  0
   30.2304    8.2548    7.9211 H   0  0  0  0  0  0  0  0  0  0  0  0
   31.4361    8.5886    9.1499 H   0  0  0  0  0  0  0  0  0  0  0  0
   31.9338    7.9059    7.5938 H   0  0  0  0  0  0  0  0  0  0  0  0
   33.1438    9.5478    6.2679 H   0  0  0  0  0  0  0  0  0  0  0  0
   34.0620   11.2027    4.7143 H   0  0  0  0  0  0  0  0  0  0  0  0
   35.6313   13.5480    3.7804 H   0  0  0  0  0  0  0  0  0  0  0  0
   34.4952   15.3860    2.7229 H   0  0  0  0  0  0  0  0  0  0  0  0
   33.0168   14.4458    2.4803 H   0  0  0  0  0  0  0  0  0  0  0  0
   35.6398   14.1568    0.9930 H   0  0  0  0  0  0  0  0  0  0  0  0
   34.0167   14.3002    0.2886 H   0  0  0  0  0  0  0  0  0  0  0  0
   33.4106   12.0821    1.0732 H   0  0  0  0  0  0  0  0  0  0  0  0
   35.1180   11.8428    0.6424 H   0  0  0  0  0  0  0  0  0  0  0  0
   31.3767   13.4516    5.9260 H   0  0  0  0  0  0  0  0  0  0  0  0
   28.4571   14.2939    8.6202 H   0  0  0  0  0  0  0  0  0  0  0  0
   28.6631   12.7174    9.3230 H   0  0  0  0  0  0  0  0  0  0  0  0
   28.7400   13.7089   11.7167 H   0  0  0  0  0  0  0  0  0  0  0  0
   27.8691   14.8446   10.6783 H   0  0  0  0  0  0  0  0  0  0  0  0
   28.6592   15.3894   12.1997 H   0  0  0  0  0  0  0  0  0  0  0  0
   31.3049   15.1169   12.1640 H   0  0  0  0  0  0  0  0  0  0  0  0
   31.8424   15.9173   10.6814 H   0  0  0  0  0  0  0  0  0  0  0  0
   30.5988   16.6682   11.6945 H   0  0  0  0  0  0  0  0  0  0  0  0
   29.7247   10.6545    8.6250 H   0  0  0  0  0  0  0  0  0  0  0  0
  1  2  1  0
  2  3  2  0
  3  4  1  0
  4  5  1  0
  5  6  1  0
  6  7  2  0
  6  8  1  0
  8  9  1  0
  9 10  1  0
 10 11  1  0
 11 12  1  0
  4 13  2  0
 13 14  1  0
 14 15  1  0
 15 16  1  0
 16 17  1  0
 17 18  2  0
 17 19  1  0
 19 20  1  0
 19 21  1  0
 14 22  2  0
 22  2  1  0
 12  8  1  0
  1 23  1  0
  1 24  1  0
  1 25  1  0
  3 26  1  0
  5 27  1  0
  8 28  1  0
  9 29  1  0
  9 30  1  0
 10 31  1  0
 10 32  1  0
 11 33  1  0
 11 34  1  0
 13 35  1  0
 16 36  1  0
 16 37  1  0
 20 38  1  0
 20 39  1  0
 20 40  1  0
 21 41  1  0
 21 42  1  0
 21 43  1  0
 22 44  1  0
M  END
