LIG
     RDKit          3D

 40 41  0  0  0  0  0  0  0  0999 V2000
   30.7370    8.6550    8.4540 C   0  0  0  0  0  0  0  0  0  0  0  0
   31.3020    9.7050    7.8000 C   0  0  0  0  0  0  0  0  0  0  0  0
   30.8090   10.9600    8.0540 C   0  0  0  0  0  0  0  0  0  0  0  0
   31.3600   12.0190    7.3410 C   0  0  0  0  0  0  0  0  0  0  0  0
   30.9510   13.3300    7.5050 O   0  0  0  0  0  0  0  0  0  0  0  0
   30.0580   13.6540    8.5870 C   0  0  0  0  0  0  0  0  0  0  0  0
   28.5940   13.4330    8.1660 C   0  0  0  0  0  0  0  0  0  0  0  0
   27.8900   14.7750    8.3110 C   0  0  0  0  0  0  0  0  0  0  0  0
   28.8690   15.5850    9.0100 N   0  0  0  0  0  0  0  0  0  0  0  0
   28.4820   16.7650    9.7690 C   0  0  0  0  0  0  0  0  0  0  0  0
   30.1260   15.1410    8.9140 C   0  0  0  0  0  0  0  0  0  0  0  0
   31.1310   15.8110    9.0820 O   0  0  0  0  0  0  0  0  0  0  0  0
   32.3710   11.8060    6.4170 C   0  0  0  0  0  0  0  0  0  0  0  0
   33.6520   12.7090    6.6590 N   0  0  0  0  0  0  0  0  0  0  0  0
   34.4250   13.2280    7.6390 C   0  0  0  0  0  0  0  0  0  0  0  0
   34.9120   12.5690    8.5560 O   0  0  0  0  0  0  0  0  0  0  0  0
   34.6680   14.7180    7.5670 C   0  0  0  0  0  0  0  0  0  0  0  0
   35.0470   15.1300    6.2680 S   0  0  0  0  0  0  0  0  0  0  0  0
   32.8360   10.5190    6.2010 C   0  0  0  0  0  0  0  0  0  0  0  0
   34.1980   10.0910    5.5530 C   0  0  0  0  0  0  0  0  0  0  0  0
   32.2980    9.4490    6.8970 N   0  0  0  0  0  0  0  0  0  0  0  0
   30.4134    7.8167    7.7833 H   0  0  0  0  0  0  0  0  0  0  0  0
   31.4187    8.1725    9.2026 H   0  0  0  0  0  0  0  0  0  0  0  0
   31.2883    7.6897    8.3151 H   0  0  0  0  0  0  0  0  0  0  0  0
   30.0227   11.1228    8.7794 H   0  0  0  0  0  0  0  0  0  0  0  0
   29.7068   14.7069    7.0634 H   0  0  0  0  0  0  0  0  0  0  0  0
   28.5179   13.0336    7.1400 H   0  0  0  0  0  0  0  0  0  0  0  0
   28.1185   12.6764    8.8178 H   0  0  0  0  0  0  0  0  0  0  0  0
   27.6889   15.2335    7.3388 H   0  0  0  0  0  0  0  0  0  0  0  0
   26.9698   14.6983    8.8934 H   0  0  0  0  0  0  0  0  0  0  0  0
   27.4067   16.9105    9.6561 H   0  0  0  0  0  0  0  0  0  0  0  0
   29.0099   17.6445    9.3975 H   0  0  0  0  0  0  0  0  0  0  0  0
   28.7267   16.5976   10.8188 H   0  0  0  0  0  0  0  0  0  0  0  0
   34.1683   12.7227    5.6832 H   0  0  0  0  0  0  0  0  0  0  0  0
   35.4139   14.8866    8.4026 H   0  0  0  0  0  0  0  0  0  0  0  0
   33.6993   15.1379    7.9842 H   0  0  0  0  0  0  0  0  0  0  0  0
   36.3493   15.5740    6.4248 H   0  0  0  0  0  0  0  0  0  0  0  0
   34.1654   10.3489    4.5017 H   0  0  0  0  0  0  0  0  0  0  0  0
   34.7149   10.9589    5.1680 H   0  0  0  0  0  0  0  0  0  0  0  0
   34.0034    9.3507    4.7925 H   0  0  0  0  0  0  0  0  0  0  0  0
  1  2  1  0
  2  3  4  0
  3  4  4  0
  4  5  1  0
  5  6  1  0
  6  7  1  0
  7  8  1  0
  8  9  1  0
  9 10  1  0
  9 11  1  0
 11 12  2  0
  4 13  4  0
 13 14  1  0
 14 15  1  0
 15 16  2  0
 15 17  1  0
 17 18  1  0
 13 19  4  0
 19 20  1  0
 19 21  4  0
 21  2  4  0
 11  6  1  0
  1 22  1  0
  1 23  1  0
  1 24  1  0
  3 25  1  0
  6 26  1  0
  7 27  1  0
  7 28  1  0
  8 29  1  0
  8 30  1  0
 10 31  1  0
 10 32  1  0
 10 33  1  0
 14 34  1  0
 17 35  1  0
 17 36  1  0
 18 37  1  0
 20 38  1  0
 20 39  1  0
 20 40  1  0
M  END
$$$$
