LIG
     RDKit          3D

 38 39  0  0  0  0  0  0  0  0999 V2000
   34.1980   10.0910    5.5530 C   0  0  0  0  0  0  0  0  0  0  0  0
   32.8360   10.5190    6.2010 C   0  0  0  0  0  0  0  0  0  0  0  0
   32.2980    9.4490    6.8970 C   0  0  0  0  0  0  0  0  0  0  0  0
   31.3020    9.7050    7.8000 C   0  0  0  0  0  0  0  0  0  0  0  0
   30.8090   10.9600    8.0540 C   0  0  0  0  0  0  0  0  0  0  0  0
   31.3600   12.0190    7.3410 C   0  0  0  0  0  0  0  0  0  0  0  0
   30.9510   13.3300    7.5050 O   0  0  0  0  0  0  0  0  0  0  0  0
   30.0580   13.6540    8.5870 C   0  0  0  0  0  0  0  0  0  0  0  0
   28.5940   13.4330    8.1660 C   0  0  0  0  0  0  0  0  0  0  0  0
   27.8900   14.7750    8.3110 C   0  0  0  0  0  0  0  0  0  0  0  0
   28.8690   15.5850    9.0100 N   0  0  0  0  0  0  0  0  0  0  0  0
   28.4820   16.7650    9.7690 C   0  0  0  0  0  0  0  0  0  0  0  0
   30.1260   15.1410    8.9140 C   0  0  0  0  0  0  0  0  0  0  0  0
   31.1310   15.8110    9.0820 O   0  0  0  0  0  0  0  0  0  0  0  0
   32.3710   11.8060    6.4170 C   0  0  0  0  0  0  0  0  0  0  0  0
   33.6520   12.7090    6.6590 N   0  0  0  0  0  0  0  0  0  0  0  0
   34.4250   13.2280    7.6390 C   0  0  0  0  0  0  0  0  0  0  0  0
   34.9120   12.5690    8.5560 O   0  0  0  0  0  0  0  0  0  0  0  0
   34.6680   14.7180    7.5670 C   0  0  0  0  0  0  0  0  0  0  0  0
   35.0470   15.1300    6.2680 S   0  0  0  0  0  0  0  0  0  0  0  0
   34.0195    9.5731    4.6197 H   0  0  0  0  0  0  0  0  0  0  0  0
   34.6997    9.3947    6.2177 H   0  0  0  0  0  0  0  0  0  0  0  0
   34.1909    9.0202    5.3949 H   0  0  0  0  0  0  0  0  0  0  0  0
   32.6293    8.4427    6.7220 H   0  0  0  0  0  0  0  0  0  0  0  0
   30.8534    8.8395    8.3506 H   0  0  0  0  0  0  0  0  0  0  0  0
   30.0344   11.0824    8.7835 H   0  0  0  0  0  0  0  0  0  0  0  0
   29.7126   14.6879    7.0264 H   0  0  0  0  0  0  0  0  0  0  0  0
   28.0750   12.6480    8.7477 H   0  0  0  0  0  0  0  0  0  0  0  0
   28.5665   13.1179    7.1038 H   0  0  0  0  0  0  0  0  0  0  0  0
   27.6442   15.2242    7.3472 H   0  0  0  0  0  0  0  0  0  0  0  0
   26.9935   14.6951    8.9323 H   0  0  0  0  0  0  0  0  0  0  0  0
   28.1244   16.4516   10.7509 H   0  0  0  0  0  0  0  0  0  0  0  0
   29.3777   17.3536    9.9770 H   0  0  0  0  0  0  0  0  0  0  0  0
   27.7832   17.3682    9.1868 H   0  0  0  0  0  0  0  0  0  0  0  0
   33.6940   13.3275    5.7383 H   0  0  0  0  0  0  0  0  0  0  0  0
   33.6981   15.1601    8.0061 H   0  0  0  0  0  0  0  0  0  0  0  0
   35.4005   14.9031    8.4411 H   0  0  0  0  0  0  0  0  0  0  0  0
   35.0581   16.5067    6.3281 H   0  0  0  0  0  0  0  0  0  0  0  0
  1  2  1  0
  2  3  4  0
  3  4  4  0
  4  5  4  0
  5  6  4  0
  6  7  1  0
  7  8  1  0
  8  9  1  0
  9 10  1  0
 10 11  1  0
 11 12  1  0
 11 13  1  0
 13 14  2  0
  6 15  4  0
 15 16  1  0
 16 17  1  0
 17 18  2  0
 17 19  1  0
 19 20  1  0
 15  2  4  0
 13  8  1  0
  1 21  1  0
  1 22  1  0
  1 23  1  0
  3 24  1  0
  4 25  1  0
  5 26  1  0
  8 27  1  0
  9 28  1  0
  9 29  1  0
 10 30  1  0
 10 31  1  0
 12 32  1  0
 12 33  1  0
 12 34  1  0
 16 35  1  0
 19 36  1  0
 19 37  1  0
 20 38  1  0
M  END
$$$$
