LIG
     RDKit          3D

 44 45  0  0  0  0  0  0  0  0999 V2000
   30.6969    9.0113    8.3959 C   0  0  0  0  0  0  0  0  0  0  0  0
   31.4189    9.9626    7.4803 C   0  0  0  0  0  0  0  0  0  0  0  0
   32.4119    9.4668    6.6288 C   0  0  0  0  0  0  0  0  0  0  0  0
   33.0876   10.3048    5.7437 C   0  0  0  0  0  0  0  0  0  0  0  0
   32.7655   11.6545    5.6880 C   0  0  0  0  0  0  0  0  0  0  0  0
   33.2786   12.5442    4.7320 N   0  0  0  0  0  0  0  0  0  0  0  0
   34.0723   12.2542    3.6430 C   0  0  0  0  0  0  0  0  0  0  0  0
   34.6335   11.1915    3.4020 O   0  0  0  0  0  0  0  0  0  0  0  0
   34.0823   13.4136    2.6369 C   0  0  0  0  0  0  0  0  0  0  0  0
   35.4494   13.6292    2.0117 C   0  0  0  0  0  0  0  0  0  0  0  0
   35.4728   15.1191    1.7895 C   0  0  0  0  0  0  0  0  0  0  0  0
   34.7220   15.6137    3.0023 C   0  0  0  0  0  0  0  0  0  0  0  0
   33.6696   14.6622    3.2253 O   0  0  0  0  0  0  0  0  0  0  0  0
   31.7905   12.1614    6.5536 C   0  0  0  0  0  0  0  0  0  0  0  0
   31.0929   11.3247    7.4262 C   0  0  0  0  0  0  0  0  0  0  0  0
   30.0617   11.7166    8.2264 O   0  0  0  0  0  0  0  0  0  0  0  0
   29.6835   13.0827    8.3159 C   0  0  0  0  0  0  0  0  0  0  0  0
   30.5967   13.9197    9.2312 C   0  0  0  0  0  0  0  0  0  0  0  0
   31.8170   13.9549    9.0277 O   0  0  0  0  0  0  0  0  0  0  0  0
   30.0283   14.6644   10.2513 N   0  0  0  0  0  0  0  0  0  0  0  0
   30.8927   15.3895   11.1649 C   0  0  0  0  0  0  0  0  0  0  0  0
   28.6218   14.5893   10.6166 C   0  0  0  0  0  0  0  0  0  0  0  0
   29.7570    8.6839    7.9473 H   0  0  0  0  0  0  0  0  0  0  0  0
   31.3135    8.1336    8.6034 H   0  0  0  0  0  0  0  0  0  0  0  0
   30.4811    9.4761    9.3605 H   0  0  0  0  0  0  0  0  0  0  0  0
   32.6671    8.4112    6.6531 H   0  0  0  0  0  0  0  0  0  0  0  0
   33.8504    9.8676    5.1081 H   0  0  0  0  0  0  0  0  0  0  0  0
   32.9805   13.5146    4.7810 H   0  0  0  0  0  0  0  0  0  0  0  0
   33.3416   13.1739    1.8645 H   0  0  0  0  0  0  0  0  0  0  0  0
   35.5855   13.0556    1.0900 H   0  0  0  0  0  0  0  0  0  0  0  0
   36.2512   13.3401    2.7023 H   0  0  0  0  0  0  0  0  0  0  0  0
   36.4804   15.5347    1.7094 H   0  0  0  0  0  0  0  0  0  0  0  0
   34.9191   15.3662    0.8761 H   0  0  0  0  0  0  0  0  0  0  0  0
   35.3644   15.6177    3.8887 H   0  0  0  0  0  0  0  0  0  0  0  0
   34.2952   16.6098    2.8599 H   0  0  0  0  0  0  0  0  0  0  0  0
   31.5597   13.2181    6.5063 H   0  0  0  0  0  0  0  0  0  0  0  0
   29.6334   13.5616    7.3311 H   0  0  0  0  0  0  0  0  0  0  0  0
   28.6514   13.0841    8.6650 H   0  0  0  0  0  0  0  0  0  0  0  0
   30.7543   14.9698   12.1583 H   0  0  0  0  0  0  0  0  0  0  0  0
   30.6327   16.4465   11.1758 H   0  0  0  0  0  0  0  0  0  0  0  0
   31.9455   15.3058   10.8929 H   0  0  0  0  0  0  0  0  0  0  0  0
   28.4764   15.0003   11.6173 H   0  0  0  0  0  0  0  0  0  0  0  0
   28.0409   15.1487    9.8788 H   0  0  0  0  0  0  0  0  0  0  0  0
   28.2656   13.5615   10.6313 H   0  0  0  0  0  0  0  0  0  0  0  0
  1  2  1  0
  2  3  2  0
  3  4  1  0
  4  5  2  0
  5  6  1  0
  6  7  1  0
  7  8  2  0
  7  9  1  0
  9 10  1  0
 10 11  1  0
 11 12  1  0
 12 13  1  0
  5 14  1  0
 14 15  2  0
 15 16  1  0
 16 17  1  0
 17 18  1  0
 18 19  2  0
 18 20  1  0
 20 21  1  0
 20 22  1  0
 15  2  1  0
 13  9  1  0
  1 23  1  0
  1 24  1  0
  1 25  1  0
  3 26  1  0
  4 27  1  0
  6 28  1  0
  9 29  1  0
 10 30  1  0
 10 31  1  0
 11 32  1  0
 11 33  1  0
 12 34  1  0
 12 35  1  0
 14 36  1  0
 17 37  1  0
 17 38  1  0
 21 39  1  0
 21 40  1  0
 21 41  1  0
 22 42  1  0
 22 43  1  0
 22 44  1  0
M  END
