LIG
     RDKit          3D

 45 46  0  0  0  0  0  0  0  0999 V2000
   28.3166   15.2595    9.3249 C   0  0  0  0  0  0  0  0  0  0  0  0
   29.4656   14.6536    9.9681 N   0  0  0  0  0  0  0  0  0  0  0  0
   30.1411   15.3229   11.0677 C   0  0  0  0  0  0  0  0  0  0  0  0
   30.1909   13.6597    9.3245 C   0  0  0  0  0  0  0  0  0  0  0  0
   31.4050   13.5673    9.4906 O   0  0  0  0  0  0  0  0  0  0  0  0
   29.3629   12.6957    8.4594 C   0  0  0  0  0  0  0  0  0  0  0  0
   29.6887   11.3270    8.5592 O   0  0  0  0  0  0  0  0  0  0  0  0
   30.7318   10.8172    7.8756 C   0  0  0  0  0  0  0  0  0  0  0  0
   30.9739    9.4653    8.0559 C   0  0  0  0  0  0  0  0  0  0  0  0
   31.9784    8.8531    7.3219 C   0  0  0  0  0  0  0  0  0  0  0  0
   32.7619    9.5885    6.4339 C   0  0  0  0  0  0  0  0  0  0  0  0
   32.5217   10.9432    6.2635 C   0  0  0  0  0  0  0  0  0  0  0  0
   33.3091   11.5773    5.3490 O   0  0  0  0  0  0  0  0  0  0  0  0
   32.9395   12.8965    4.9613 C   0  0  0  0  0  0  0  0  0  0  0  0
   33.4877   13.8793    5.9711 C   0  0  0  0  0  0  0  0  0  0  0  0
   33.0135   13.9169    7.1089 O   0  0  0  0  0  0  0  0  0  0  0  0
   34.5469   14.6852    5.6284 N   0  0  0  0  0  0  0  0  0  0  0  0
   35.4830   14.9035    6.7255 C   0  0  0  0  0  0  0  0  0  0  0  0
   36.5453   13.8066    6.6162 C   0  0  0  0  0  0  0  0  0  0  0  0
   37.2821   13.9891    5.3879 O   0  0  0  0  0  0  0  0  0  0  0  0
   36.4043   13.8011    4.2606 C   0  0  0  0  0  0  0  0  0  0  0  0
   35.2089   14.7594    4.3201 C   0  0  0  0  0  0  0  0  0  0  0  0
   31.4982   11.5414    6.9844 C   0  0  0  0  0  0  0  0  0  0  0  0
   27.9171   14.6728    8.4967 H   0  0  0  0  0  0  0  0  0  0  0  0
   27.5220   15.3789   10.0553 H   0  0  0  0  0  0  0  0  0  0  0  0
   28.6187   16.2080    8.8747 H   0  0  0  0  0  0  0  0  0  0  0  0
   30.6482   16.2183   10.7030 H   0  0  0  0  0  0  0  0  0  0  0  0
   30.8959   14.6763   11.5154 H   0  0  0  0  0  0  0  0  0  0  0  0
   29.4108   15.5543   11.8456 H   0  0  0  0  0  0  0  0  0  0  0  0
   28.3283   12.7344    8.8105 H   0  0  0  0  0  0  0  0  0  0  0  0
   29.3313   13.0499    7.4227 H   0  0  0  0  0  0  0  0  0  0  0  0
   30.3666    8.8795    8.7405 H   0  0  0  0  0  0  0  0  0  0  0  0
   32.1479    7.7934    7.4510 H   0  0  0  0  0  0  0  0  0  0  0  0
   33.5498    9.0914    5.8730 H   0  0  0  0  0  0  0  0  0  0  0  0
   33.3527   13.0424    3.9651 H   0  0  0  0  0  0  0  0  0  0  0  0
   31.8598   13.0380    4.8426 H   0  0  0  0  0  0  0  0  0  0  0  0
   35.9293   15.8820    6.5752 H   0  0  0  0  0  0  0  0  0  0  0  0
   35.0016   14.8761    7.7069 H   0  0  0  0  0  0  0  0  0  0  0  0
   36.0879   12.8160    6.5865 H   0  0  0  0  0  0  0  0  0  0  0  0
   37.2456   13.8154    7.4538 H   0  0  0  0  0  0  0  0  0  0  0  0
   36.0725   12.7563    4.2452 H   0  0  0  0  0  0  0  0  0  0  0  0
   36.9858   13.9799    3.3509 H   0  0  0  0  0  0  0  0  0  0  0  0
   35.5857   15.7777    4.2004 H   0  0  0  0  0  0  0  0  0  0  0  0
   34.5071   14.5860    3.5025 H   0  0  0  0  0  0  0  0  0  0  0  0
   31.2745   12.5848    6.8509 H   0  0  0  0  0  0  0  0  0  0  0  0
  1  2  1  0
  2  3  1  0
  2  4  1  0
  4  5  2  0
  4  6  1  0
  6  7  1  0
  7  8  1  0
  8  9  2  0
  9 10  1  0
 10 11  2  0
 11 12  1  0
 12 13  1  0
 13 14  1  0
 14 15  1  0
 15 16  2  0
 15 17  1  0
 17 18  1  0
 18 19  1  0
 19 20  1  0
 20 21  1  0
 21 22  1  0
 12 23  2  0
 23  8  1  0
 22 17  1  0
  1 24  1  0
  1 25  1  0
  1 26  1  0
  3 27  1  0
  3 28  1  0
  3 29  1  0
  6 30  1  0
  6 31  1  0
  9 32  1  0
 10 33  1  0
 11 34  1  0
 14 35  1  0
 14 36  1  0
 18 37  1  0
 18 38  1  0
 19 39  1  0
 19 40  1  0
 21 41  1  0
 21 42  1  0
 22 43  1  0
 22 44  1  0
 23 45  1  0
M  END
