LIG
     RDKit          3D

 37 37  0  0  0  0  0  0  0  0999 V2000
   -2.9459    3.1478   -1.0171 C   0  0  0  0  0  0  0  0  0  0  0  0
   -1.4642    3.1910   -0.7339 C   0  0  0  0  0  0  0  0  0  0  0  0
   -0.8765    4.2620   -0.6424 O   0  0  0  0  0  0  0  0  0  0  0  0
   -0.9310    1.9270   -0.5672 N   0  0  0  0  0  0  0  0  0  0  0  0
    0.4115    1.5498   -0.3282 C   0  0  0  0  0  0  0  0  0  0  0  0
    1.4333    2.5019   -0.3021 C   0  0  0  0  0  0  0  0  0  0  0  0
    2.7472    2.1260   -0.0549 C   0  0  0  0  0  0  0  0  0  0  0  0
    3.0591    0.7932    0.1911 C   0  0  0  0  0  0  0  0  0  0  0  0
    2.0686   -0.1955    0.1847 C   0  0  0  0  0  0  0  0  0  0  0  0
    2.3881   -1.5467    0.4988 N   0  0  0  0  0  0  0  0  0  0  0  0
    3.6368   -2.0911    0.7656 C   0  0  0  0  0  0  0  0  0  0  0  0
    3.5464   -3.5643    1.0815 C   0  0  0  0  0  0  0  0  0  0  0  0
    4.7181   -1.5168    0.7669 O   0  0  0  0  0  0  0  0  0  0  0  0
    0.7204    0.1730   -0.1167 C   0  0  0  0  0  0  0  0  0  0  0  0
   -0.3584   -0.9038   -0.1195 C   0  0  0  0  0  0  0  0  0  0  0  0
   -1.5731   -0.6076   -0.9193 N   0  0  0  0  0  0  0  0  0  0  0  0
   -2.8703   -1.6703   -0.6794 S   0  0  0  0  0  0  0  0  0  0  0  0
   -3.6986   -0.9161    0.7053 C   0  0  0  0  0  0  0  0  0  0  0  0
   -2.3235   -2.9462   -0.2811 O   0  0  0  0  0  0  0  0  0  0  0  0
   -3.7046   -1.5196   -1.8482 O   0  0  0  0  0  0  0  0  0  0  0  0
   -3.1987    2.2950   -1.6540 H   0  0  0  0  0  0  0  0  0  0  0  0
   -3.2419    4.0610   -1.5414 H   0  0  0  0  0  0  0  0  0  0  0  0
   -3.4927    3.0763   -0.0732 H   0  0  0  0  0  0  0  0  0  0  0  0
   -1.5812    1.1485   -0.6369 H   0  0  0  0  0  0  0  0  0  0  0  0
    1.2430    3.5563   -0.4768 H   0  0  0  0  0  0  0  0  0  0  0  0
    3.5326    2.8782   -0.0398 H   0  0  0  0  0  0  0  0  0  0  0  0
    4.0997    0.5687    0.4022 H   0  0  0  0  0  0  0  0  0  0  0  0
    1.6295   -2.2101    0.5553 H   0  0  0  0  0  0  0  0  0  0  0  0
    4.5527   -3.9797    1.1880 H   0  0  0  0  0  0  0  0  0  0  0  0
    3.0027   -3.7078    2.0193 H   0  0  0  0  0  0  0  0  0  0  0  0
    3.0368   -4.0923    0.2704 H   0  0  0  0  0  0  0  0  0  0  0  0
   -0.6367   -1.0882    0.9241 H   0  0  0  0  0  0  0  0  0  0  0  0
    0.0555   -1.8172   -0.5605 H   0  0  0  0  0  0  0  0  0  0  0  0
   -1.3784   -0.5570   -1.9271 H   0  0  0  0  0  0  0  0  0  0  0  0
   -4.5916   -1.5059    0.9229 H   0  0  0  0  0  0  0  0  0  0  0  0
   -3.0314   -0.9222    1.5685 H   0  0  0  0  0  0  0  0  0  0  0  0
   -3.9832    0.1025    0.4347 H   0  0  0  0  0  0  0  0  0  0  0  0
  1  2  1  0
  2  3  2  0
  2  4  1  0
  4  5  1  0
  5  6  2  0
  6  7  1  0
  7  8  2  0
  8  9  1  0
  9 10  1  0
 10 11  1  0
 11 12  1  0
 11 13  2  0
  9 14  2  0
 14 15  1  0
 15 16  1  0
 16 17  1  0
 17 18  1  0
 17 19  2  0
 17 20  2  0
 14  5  1  0
  1 21  1  0
  1 22  1  0
  1 23  1  0
  4 24  1  0
  6 25  1  0
  7 26  1  0
  8 27  1  0
 10 28  1  0
 12 29  1  0
 12 30  1  0
 12 31  1  0
 15 32  1  0
 15 33  1  0
 16 34  1  0
 18 35  1  0
 18 36  1  0
 18 37  1  0
M  END
