LIG
     RDKit          3D

 37 37  0  0  0  0  0  0  0  0999 V2000
   -6.5406   -0.2198   -1.2325 C   0  0  0  0  0  0  0  0  0  0  0  0
   -5.1086   -0.1445   -0.7920 C   0  0  0  0  0  0  0  0  0  0  0  0
   -4.7499   -0.6299    0.4729 C   0  0  0  0  0  0  0  0  0  0  0  0
   -3.4230   -0.5762    0.9183 C   0  0  0  0  0  0  0  0  0  0  0  0
   -2.4267   -0.0358    0.1073 C   0  0  0  0  0  0  0  0  0  0  0  0
   -1.0751    0.0545    0.4805 N   0  0  0  0  0  0  0  0  0  0  0  0
   -0.4813   -0.3339    1.6665 C   0  0  0  0  0  0  0  0  0  0  0  0
   -1.0318   -0.8453    2.6374 O   0  0  0  0  0  0  0  0  0  0  0  0
    1.0297   -0.0736    1.6648 C   0  0  0  0  0  0  0  0  0  0  0  0
    1.4172    0.8034    0.6039 O   0  0  0  0  0  0  0  0  0  0  0  0
    2.8295    0.9655    0.5262 C   0  0  0  0  0  0  0  0  0  0  0  0
    3.6042   -0.2056   -0.1116 C   0  0  0  0  0  0  0  0  0  0  0  0
    3.0096   -1.2060   -0.5187 O   0  0  0  0  0  0  0  0  0  0  0  0
    4.9896   -0.0789   -0.2014 N   0  0  0  0  0  0  0  0  0  0  0  0
    5.7567   -1.2149   -0.6886 C   0  0  0  0  0  0  0  0  0  0  0  0
    5.7580    0.9908    0.4169 C   0  0  0  0  0  0  0  0  0  0  0  0
   -2.7768    0.4487   -1.1563 C   0  0  0  0  0  0  0  0  0  0  0  0
   -4.1003    0.3935   -1.5970 C   0  0  0  0  0  0  0  0  0  0  0  0
   -4.3375    0.8932   -2.8471 O   0  0  0  0  0  0  0  0  0  0  0  0
   -6.9248    0.7829   -1.4459 H   0  0  0  0  0  0  0  0  0  0  0  0
   -6.6288   -0.8427   -2.1284 H   0  0  0  0  0  0  0  0  0  0  0  0
   -7.1792   -0.6599   -0.4593 H   0  0  0  0  0  0  0  0  0  0  0  0
   -5.5009   -1.0593    1.1332 H   0  0  0  0  0  0  0  0  0  0  0  0
   -3.2014   -0.9679    1.9062 H   0  0  0  0  0  0  0  0  0  0  0  0
   -0.4289    0.4704   -0.1871 H   0  0  0  0  0  0  0  0  0  0  0  0
    1.2891    0.3916    2.6221 H   0  0  0  0  0  0  0  0  0  0  0  0
    1.5293   -1.0428    1.5734 H   0  0  0  0  0  0  0  0  0  0  0  0
    3.2285    1.1723    1.5256 H   0  0  0  0  0  0  0  0  0  0  0  0
    2.9993    1.8443   -0.1047 H   0  0  0  0  0  0  0  0  0  0  0  0
    6.5506   -0.8544   -1.3493 H   0  0  0  0  0  0  0  0  0  0  0  0
    5.1356   -1.9220   -1.2448 H   0  0  0  0  0  0  0  0  0  0  0  0
    6.1992   -1.7301    0.1691 H   0  0  0  0  0  0  0  0  0  0  0  0
    5.1700    1.9014    0.5399 H   0  0  0  0  0  0  0  0  0  0  0  0
    6.0981    0.6497    1.3990 H   0  0  0  0  0  0  0  0  0  0  0  0
    6.6234    1.2234   -0.2107 H   0  0  0  0  0  0  0  0  0  0  0  0
   -2.0257    0.8742   -1.8161 H   0  0  0  0  0  0  0  0  0  0  0  0
   -5.2761    0.7838   -3.0628 H   0  0  0  0  0  0  0  0  0  0  0  0
  1  2  1  0
  2  3  2  0
  3  4  1  0
  4  5  2  0
  5  6  1  0
  6  7  1  0
  7  8  2  0
  7  9  1  0
  9 10  1  0
 10 11  1  0
 11 12  1  0
 12 13  2  0
 12 14  1  0
 14 15  1  0
 14 16  1  0
  5 17  1  0
 17 18  2  0
 18 19  1  0
 18  2  1  0
  1 20  1  0
  1 21  1  0
  1 22  1  0
  3 23  1  0
  4 24  1  0
  6 25  1  0
  9 26  1  0
  9 27  1  0
 11 28  1  0
 11 29  1  0
 15 30  1  0
 15 31  1  0
 15 32  1  0
 16 33  1  0
 16 34  1  0
 16 35  1  0
 17 36  1  0
 19 37  1  0
M  END
