LIG
     RDKit          3D

 38 39  0  0  0  0  0  0  0  0999 V2000
   30.8105    8.7289    8.5115 C   0  0  0  0  0  0  0  0  0  0  0  0
   31.5371    9.6183    7.5455 C   0  0  0  0  0  0  0  0  0  0  0  0
   32.4990    9.0492    6.7015 C   0  0  0  0  0  0  0  0  0  0  0  0
   33.2323    9.8008    5.7794 C   0  0  0  0  0  0  0  0  0  0  0  0
   33.0072   11.1644    5.6791 C   0  0  0  0  0  0  0  0  0  0  0  0
   33.7417   11.9056    4.7419 N   0  0  0  0  0  0  0  0  0  0  0  0
   33.7202   13.2788    4.5637 C   0  0  0  0  0  0  0  0  0  0  0  0
   33.1358   14.1020    5.2639 O   0  0  0  0  0  0  0  0  0  0  0  0
   34.5201   13.7169    3.3327 C   0  0  0  0  0  0  0  0  0  0  0  0
   33.6666   14.5978    2.4322 C   0  0  0  0  0  0  0  0  0  0  0  0
   34.2480   14.3243    1.0710 C   0  0  0  0  0  0  0  0  0  0  0  0
   34.5906   12.8561    1.1655 C   0  0  0  0  0  0  0  0  0  0  0  0
   34.9555   12.6012    2.5294 O   0  0  0  0  0  0  0  0  0  0  0  0
   32.0245   11.7314    6.4825 C   0  0  0  0  0  0  0  0  0  0  0  0
   31.2662   10.9710    7.3835 C   0  0  0  0  0  0  0  0  0  0  0  0
   30.2708   11.6134    8.1357 N   0  0  0  0  0  0  0  0  0  0  0  0
   29.5429   12.6787    7.6367 C   0  0  0  0  0  0  0  0  0  0  0  0
   29.4227   12.9465    6.4440 O   0  0  0  0  0  0  0  0  0  0  0  0
   28.8852   13.4743    8.7201 C   0  0  0  0  0  0  0  0  0  0  0  0
   28.6309   14.8338    8.2829 C   0  0  0  0  0  0  0  0  0  0  0  0
   28.4344   15.9452    8.0308 N   0  0  0  0  0  0  0  0  0  0  0  0
   31.4761    7.9403    8.8612 H   0  0  0  0  0  0  0  0  0  0  0  0
   29.9242    8.2906    8.0510 H   0  0  0  0  0  0  0  0  0  0  0  0
   30.4986    9.2649    9.4100 H   0  0  0  0  0  0  0  0  0  0  0  0
   32.7030    7.9916    6.7921 H   0  0  0  0  0  0  0  0  0  0  0  0
   33.9806    9.3022    5.1691 H   0  0  0  0  0  0  0  0  0  0  0  0
   34.3838   11.4104    4.1275 H   0  0  0  0  0  0  0  0  0  0  0  0
   35.4180   14.2429    3.6756 H   0  0  0  0  0  0  0  0  0  0  0  0
   32.6138   14.2895    2.4575 H   0  0  0  0  0  0  0  0  0  0  0  0
   33.7097   15.6540    2.7145 H   0  0  0  0  0  0  0  0  0  0  0  0
   33.5675   14.5535    0.2470 H   0  0  0  0  0  0  0  0  0  0  0  0
   35.1629   14.9133    0.9354 H   0  0  0  0  0  0  0  0  0  0  0  0
   33.7223   12.2309    0.9309 H   0  0  0  0  0  0  0  0  0  0  0  0
   35.4140   12.5715    0.5046 H   0  0  0  0  0  0  0  0  0  0  0  0
   31.8231   12.7930    6.4111 H   0  0  0  0  0  0  0  0  0  0  0  0
   29.9023   11.1540    8.9645 H   0  0  0  0  0  0  0  0  0  0  0  0
   27.9605   12.9775    9.0114 H   0  0  0  0  0  0  0  0  0  0  0  0
   29.5505   13.5259    9.5860 H   0  0  0  0  0  0  0  0  0  0  0  0
  1  2  1  0
  2  3  2  0
  3  4  1  0
  4  5  2  0
  5  6  1  0
  6  7  1  0
  7  8  2  0
  7  9  1  0
  9 10  1  0
 10 11  1  0
 11 12  1  0
 12 13  1  0
  5 14  1  0
 14 15  2  0
 15 16  1  0
 16 17  1  0
 17 18  2  0
 17 19  1  0
 19 20  1  0
 20 21  3  0
 15  2  1  0
 13  9  1  0
  1 22  1  0
  1 23  1  0
  1 24  1  0
  3 25  1  0
  4 26  1  0
  6 27  1  0
  9 28  1  0
 10 29  1  0
 10 30  1  0
 11 31  1  0
 11 32  1  0
 12 33  1  0
 12 34  1  0
 14 35  1  0
 16 36  1  0
 19 37  1  0
 19 38  1  0
M  END
