LIG
     RDKit          3D

 35 36  0  0  0  0  0  0  0  0999 V2000
   28.4216   15.9159    8.0429 N   0  0  0  0  0  0  0  0  0  0  0  0
   28.6295   14.8053    8.2896 C   0  0  0  0  0  0  0  0  0  0  0  0
   28.8976   13.4466    8.7236 C   0  0  0  0  0  0  0  0  0  0  0  0
   29.5470   12.6528    7.6342 C   0  0  0  0  0  0  0  0  0  0  0  0
   29.4434   12.9417    6.4448 O   0  0  0  0  0  0  0  0  0  0  0  0
   30.2561   11.5651    8.1165 N   0  0  0  0  0  0  0  0  0  0  0  0
   31.2660   10.9548    7.3625 C   0  0  0  0  0  0  0  0  0  0  0  0
   31.5126    9.6025    7.4994 C   0  0  0  0  0  0  0  0  0  0  0  0
   32.4939    9.0257    6.7000 C   0  0  0  0  0  0  0  0  0  0  0  0
   33.2495    9.7798    5.7972 C   0  0  0  0  0  0  0  0  0  0  0  0
   33.0298   11.1474    5.6937 C   0  0  0  0  0  0  0  0  0  0  0  0
   33.7723   11.8876    4.7616 N   0  0  0  0  0  0  0  0  0  0  0  0
   33.7443   13.2605    4.5757 C   0  0  0  0  0  0  0  0  0  0  0  0
   33.1578   14.0846    5.2733 O   0  0  0  0  0  0  0  0  0  0  0  0
   34.5398   13.6963    3.3410 C   0  0  0  0  0  0  0  0  0  0  0  0
   33.6868   14.5837    2.4464 C   0  0  0  0  0  0  0  0  0  0  0  0
   34.2598   14.3095    1.0818 C   0  0  0  0  0  0  0  0  0  0  0  0
   34.5948   12.8392    1.1721 C   0  0  0  0  0  0  0  0  0  0  0  0
   34.9643   12.5794    2.5340 O   0  0  0  0  0  0  0  0  0  0  0  0
   32.0427   11.7204    6.4879 C   0  0  0  0  0  0  0  0  0  0  0  0
   29.5767   13.5035    9.5782 H   0  0  0  0  0  0  0  0  0  0  0  0
   27.9793   12.9468    9.0290 H   0  0  0  0  0  0  0  0  0  0  0  0
   29.8666   11.0644    8.9118 H   0  0  0  0  0  0  0  0  0  0  0  0
   30.9355    8.9756    8.1736 H   0  0  0  0  0  0  0  0  0  0  0  0
   32.6793    7.9677    6.8055 H   0  0  0  0  0  0  0  0  0  0  0  0
   34.0085    9.2817    5.1993 H   0  0  0  0  0  0  0  0  0  0  0  0
   34.4137   11.3913    4.1473 H   0  0  0  0  0  0  0  0  0  0  0  0
   35.4426   14.2168    3.6800 H   0  0  0  0  0  0  0  0  0  0  0  0
   32.6324   14.2812    2.4763 H   0  0  0  0  0  0  0  0  0  0  0  0
   33.7372   15.6391    2.7304 H   0  0  0  0  0  0  0  0  0  0  0  0
   33.5764   14.5438    0.2616 H   0  0  0  0  0  0  0  0  0  0  0  0
   35.1772   14.8936    0.9426 H   0  0  0  0  0  0  0  0  0  0  0  0
   33.7221   12.2191    0.9401 H   0  0  0  0  0  0  0  0  0  0  0  0
   35.4137   12.5514    0.5071 H   0  0  0  0  0  0  0  0  0  0  0  0
   31.8490   12.7836    6.4244 H   0  0  0  0  0  0  0  0  0  0  0  0
  1  2  3  0
  2  3  1  0
  3  4  1  0
  4  5  2  0
  4  6  1  0
  6  7  1  0
  7  8  2  0
  8  9  1  0
  9 10  2  0
 10 11  1  0
 11 12  1  0
 12 13  1  0
 13 14  2  0
 13 15  1  0
 15 16  1  0
 16 17  1  0
 17 18  1  0
 18 19  1  0
 11 20  2  0
 20  7  1  0
 19 15  1  0
  3 21  1  0
  3 22  1  0
  6 23  1  0
  8 24  1  0
  9 25  1  0
 10 26  1  0
 12 27  1  0
 15 28  1  0
 16 29  1  0
 16 30  1  0
 17 31  1  0
 17 32  1  0
 18 33  1  0
 18 34  1  0
 20 35  1  0
M  END
