LIG
     RDKit          3D

 37 38  0  0  0  0  0  0  0  0999 V2000
   35.1898    8.5154    3.7887 C   0  0  0  0  0  0  0  0  0  0  0  0
   35.3861    9.9753    4.0310 C   0  0  0  0  0  0  0  0  0  0  0  0
   36.3735   10.5798    3.6101 O   0  0  0  0  0  0  0  0  0  0  0  0
   34.4540   10.6873    4.6890 N   0  0  0  0  0  0  0  0  0  0  0  0
   33.4344   10.3310    5.5663 C   0  0  0  0  0  0  0  0  0  0  0  0
   33.1965    9.1251    6.1806 C   0  0  0  0  0  0  0  0  0  0  0  0
   32.2398    8.9159    7.1121 N   0  0  0  0  0  0  0  0  0  0  0  0
   31.5579    9.9965    7.5344 C   0  0  0  0  0  0  0  0  0  0  0  0
   31.7675   11.2487    7.0028 C   0  0  0  0  0  0  0  0  0  0  0  0
   31.1624   12.3287    7.5313 O   0  0  0  0  0  0  0  0  0  0  0  0
   31.7962   13.5620    7.2332 C   0  0  0  0  0  0  0  0  0  0  0  0
   33.2184   13.7455    7.7850 C   0  0  0  0  0  0  0  0  0  0  0  0
   33.3523   13.6275    9.0078 O   0  0  0  0  0  0  0  0  0  0  0  0
   34.3091   14.0103    6.9673 N   0  0  0  0  0  0  0  0  0  0  0  0
   35.6255   14.0189    7.6061 C   0  0  0  0  0  0  0  0  0  0  0  0
   36.6957   13.4708    6.6455 C   0  0  0  0  0  0  0  0  0  0  0  0
   36.8137   14.1710    5.4003 O   0  0  0  0  0  0  0  0  0  0  0  0
   35.7067   15.0403    5.1736 C   0  0  0  0  0  0  0  0  0  0  0  0
   34.3588   14.4005    5.5486 C   0  0  0  0  0  0  0  0  0  0  0  0
   32.6246   11.3655    5.9369 C   0  0  0  0  0  0  0  0  0  0  0  0
   35.7358    8.2319    2.8832 H   0  0  0  0  0  0  0  0  0  0  0  0
   34.1386    8.2793    3.6151 H   0  0  0  0  0  0  0  0  0  0  0  0
   35.5900    7.9403    4.6256 H   0  0  0  0  0  0  0  0  0  0  0  0
   34.6995   11.6660    4.6456 H   0  0  0  0  0  0  0  0  0  0  0  0
   33.8305    8.2767    6.0008 H   0  0  0  0  0  0  0  0  0  0  0  0
   30.8466    9.8258    8.3386 H   0  0  0  0  0  0  0  0  0  0  0  0
   31.6979   13.8204    6.1761 H   0  0  0  0  0  0  0  0  0  0  0  0
   31.1869   14.2774    7.7931 H   0  0  0  0  0  0  0  0  0  0  0  0
   35.6239   13.4421    8.5345 H   0  0  0  0  0  0  0  0  0  0  0  0
   35.8313   15.0552    7.8825 H   0  0  0  0  0  0  0  0  0  0  0  0
   37.6793   13.4571    7.1244 H   0  0  0  0  0  0  0  0  0  0  0  0
   36.4608   12.4449    6.3576 H   0  0  0  0  0  0  0  0  0  0  0  0
   35.9165   15.8977    5.8019 H   0  0  0  0  0  0  0  0  0  0  0  0
   35.7175   15.3453    4.1237 H   0  0  0  0  0  0  0  0  0  0  0  0
   33.5132   15.0322    5.3123 H   0  0  0  0  0  0  0  0  0  0  0  0
   34.2531   13.5008    4.9522 H   0  0  0  0  0  0  0  0  0  0  0  0
   32.6903   12.2788    5.3718 H   0  0  0  0  0  0  0  0  0  0  0  0
  1  2  1  0
  2  3  2  0
  2  4  1  0
  4  5  1  0
  5  6  2  0
  6  7  1  0
  7  8  2  0
  8  9  1  0
  9 10  1  0
 10 11  1  0
 11 12  1  0
 12 13  2  0
 12 14  1  0
 14 15  1  0
 15 16  1  0
 16 17  1  0
 17 18  1  0
 18 19  1  0
  9 20  2  0
 20  5  1  0
 19 14  1  0
  1 21  1  0
  1 22  1  0
  1 23  1  0
  4 24  1  0
  6 25  1  0
  8 26  1  0
 11 27  1  0
 11 28  1  0
 15 29  1  0
 15 30  1  0
 16 31  1  0
 16 32  1  0
 18 33  1  0
 18 34  1  0
 19 35  1  0
 19 36  1  0
 20 37  1  0
M  END
