LIG
     RDKit          3D

 38 39  0  0  0  0  0  0  0  0999 V2000
   -3.9351   -1.5003   -1.4120 C   0  0  0  0  0  0  0  0  0  0  0  0
   -2.5151   -1.0950   -1.6915 C   0  0  0  0  0  0  0  0  0  0  0  0
   -1.9886   -1.4553   -2.9494 C   0  0  0  0  0  0  0  0  0  0  0  0
   -0.7236   -1.0335   -3.3583 C   0  0  0  0  0  0  0  0  0  0  0  0
    0.0504   -0.2497   -2.5125 C   0  0  0  0  0  0  0  0  0  0  0  0
   -0.4300    0.0692   -1.2420 C   0  0  0  0  0  0  0  0  0  0  0  0
    0.3126    0.8396   -0.3741 O   0  0  0  0  0  0  0  0  0  0  0  0
    1.5817    0.2737   -0.0787 C   0  0  0  0  0  0  0  0  0  0  0  0
    1.8277    0.3698    1.4303 C   0  0  0  0  0  0  0  0  0  0  0  0
    3.3366    0.3975    1.5454 C   0  0  0  0  0  0  0  0  0  0  0  0
    3.7362    1.1344    0.3761 N   0  0  0  0  0  0  0  0  0  0  0  0
    5.1028    1.5446    0.1580 C   0  0  0  0  0  0  0  0  0  0  0  0
    2.7897    1.0372   -0.6416 C   0  0  0  0  0  0  0  0  0  0  0  0
    2.9195    1.4460   -1.7850 O   0  0  0  0  0  0  0  0  0  0  0  0
   -1.7074   -0.3539   -0.8107 C   0  0  0  0  0  0  0  0  0  0  0  0
   -2.0789    0.0713    0.4868 N   0  0  0  0  0  0  0  0  0  0  0  0
   -2.8211   -0.6229    1.4228 C   0  0  0  0  0  0  0  0  0  0  0  0
   -3.2622   -1.7621    1.3027 O   0  0  0  0  0  0  0  0  0  0  0  0
   -3.0925    0.1830    2.6835 C   0  0  0  0  0  0  0  0  0  0  0  0
   -1.5526    0.7739    3.4461 S   0  0  0  0  0  0  0  0  0  0  0  0
   -4.5134   -1.5446   -2.3425 H   0  0  0  0  0  0  0  0  0  0  0  0
   -4.4472   -0.7684   -0.7807 H   0  0  0  0  0  0  0  0  0  0  0  0
   -3.9679   -2.4918   -0.9522 H   0  0  0  0  0  0  0  0  0  0  0  0
   -2.5885   -2.0467   -3.6397 H   0  0  0  0  0  0  0  0  0  0  0  0
   -0.3542   -1.2974   -4.3460 H   0  0  0  0  0  0  0  0  0  0  0  0
    1.0151    0.1128   -2.8552 H   0  0  0  0  0  0  0  0  0  0  0  0
    1.6749   -0.7779   -0.3869 H   0  0  0  0  0  0  0  0  0  0  0  0
    1.3956    1.2974    1.8273 H   0  0  0  0  0  0  0  0  0  0  0  0
    1.3772   -0.4615    1.9809 H   0  0  0  0  0  0  0  0  0  0  0  0
    3.7673   -0.6080    1.4915 H   0  0  0  0  0  0  0  0  0  0  0  0
    3.6753    0.9025    2.4541 H   0  0  0  0  0  0  0  0  0  0  0  0
    5.7232    0.6516    0.0411 H   0  0  0  0  0  0  0  0  0  0  0  0
    5.4439    2.1239    1.0198 H   0  0  0  0  0  0  0  0  0  0  0  0
    5.1789    2.1528   -0.7473 H   0  0  0  0  0  0  0  0  0  0  0  0
   -1.4482    0.7667    0.8819 H   0  0  0  0  0  0  0  0  0  0  0  0
   -3.6209   -0.4484    3.4042 H   0  0  0  0  0  0  0  0  0  0  0  0
   -3.7331    1.0341    2.4334 H   0  0  0  0  0  0  0  0  0  0  0  0
   -2.1277    1.3355    4.5201 H   0  0  0  0  0  0  0  0  0  0  0  0
  1  2  1  0
  2  3  2  0
  3  4  1  0
  4  5  2  0
  5  6  1  0
  6  7  1  0
  7  8  1  0
  8  9  1  0
  9 10  1  0
 10 11  1  0
 11 12  1  0
 11 13  1  0
 13 14  2  0
  6 15  2  0
 15 16  1  0
 16 17  1  0
 17 18  2  0
 17 19  1  0
 19 20  1  0
 15  2  1  0
 13  8  1  0
  1 21  1  0
  1 22  1  0
  1 23  1  0
  3 24  1  0
  4 25  1  0
  5 26  1  0
  8 27  1  0
  9 28  1  0
  9 29  1  0
 10 30  1  0
 10 31  1  0
 12 32  1  0
 12 33  1  0
 12 34  1  0
 16 35  1  0
 19 36  1  0
 19 37  1  0
 20 38  1  0
M  END
