LIG
     RDKit          3D

 27 27  0  0  0  0  0  0  0  0999 V2000
   33.9852   10.4812    4.3654 C   0  0  0  0  0  0  0  0  0  0  0  0
   34.0037   11.9837    4.1538 C   0  0  0  0  0  0  0  0  0  0  0  0
   34.9674   12.4966    3.5814 O   0  0  0  0  0  0  0  0  0  0  0  0
   32.8972   12.7471    4.5245 N   0  0  0  0  0  0  0  0  0  0  0  0
   32.1006   12.5357    5.6808 C   0  0  0  0  0  0  0  0  0  0  0  0
   30.7650   12.8958    5.7807 C   0  0  0  0  0  0  0  0  0  0  0  0
   29.9678   12.2728    6.7474 C   0  0  0  0  0  0  0  0  0  0  0  0
   30.5109   11.2833    7.5585 C   0  0  0  0  0  0  0  0  0  0  0  0
   31.8735   11.0582    7.5298 C   0  0  0  0  0  0  0  0  0  0  0  0
   32.6611   11.8594    6.7302 C   0  0  0  0  0  0  0  0  0  0  0  0
   34.0176   12.1550    6.9476 N   0  0  0  0  0  0  0  0  0  0  0  0
   34.2649   13.2474    7.7671 C   0  0  0  0  0  0  0  0  0  0  0  0
   34.0193   13.1752    8.9736 O   0  0  0  0  0  0  0  0  0  0  0  0
   35.0256   14.4079    7.1205 C   0  0  0  0  0  0  0  0  0  0  0  0
   34.4511   14.9480    5.9437 O   0  0  0  0  0  0  0  0  0  0  0  0
   34.7892   10.1991    5.0498 H   0  0  0  0  0  0  0  0  0  0  0  0
   33.0344   10.1211    4.7563 H   0  0  0  0  0  0  0  0  0  0  0  0
   34.1502    9.9946    3.3993 H   0  0  0  0  0  0  0  0  0  0  0  0
   33.0049   13.7227    4.2637 H   0  0  0  0  0  0  0  0  0  0  0  0
   30.3070   13.5407    5.0382 H   0  0  0  0  0  0  0  0  0  0  0  0
   28.9055   12.4926    6.8044 H   0  0  0  0  0  0  0  0  0  0  0  0
   29.8829   10.7214    8.2452 H   0  0  0  0  0  0  0  0  0  0  0  0
   32.2614   10.2955    8.1746 H   0  0  0  0  0  0  0  0  0  0  0  0
   34.4635   11.3964    7.4393 H   0  0  0  0  0  0  0  0  0  0  0  0
   35.0861   15.2017    7.8671 H   0  0  0  0  0  0  0  0  0  0  0  0
   36.0395   14.0659    6.8911 H   0  0  0  0  0  0  0  0  0  0  0  0
   34.9001   15.8090    5.7838 H   0  0  0  0  0  0  0  0  0  0  0  0
  1  2  1  0
  2  3  2  0
  2  4  1  0
  4  5  1  0
  5  6  2  0
  6  7  1  0
  7  8  2  0
  8  9  1  0
  9 10  2  0
 10 11  1  0
 11 12  1  0
 12 13  2  0
 12 14  1  0
 14 15  1  0
 10  5  1  0
  1 16  1  0
  1 17  1  0
  1 18  1  0
  4 19  1  0
  6 20  1  0
  7 21  1  0
  8 22  1  0
  9 23  1  0
 11 24  1  0
 14 25  1  0
 14 26  1  0
 15 27  1  0
M  END
