LIG
     RDKit          3D

 37 37  0  0  0  0  0  0  0  0999 V2000
   31.8142    8.4592    7.4418 C   0  0  0  0  0  0  0  0  0  0  0  0
   31.6143    9.9139    7.2234 C   0  0  0  0  0  0  0  0  0  0  0  0
   32.5704   10.7057    6.5870 C   0  0  0  0  0  0  0  0  0  0  0  0
   32.4175   12.0830    6.6381 C   0  0  0  0  0  0  0  0  0  0  0  0
   33.5104   12.9349    6.4024 N   0  0  0  0  0  0  0  0  0  0  0  0
   34.1629   13.4405    7.5400 C   0  0  0  0  0  0  0  0  0  0  0  0
   33.9917   13.0618    8.6970 O   0  0  0  0  0  0  0  0  0  0  0  0
   35.2176   14.4661    7.1749 C   0  0  0  0  0  0  0  0  0  0  0  0
   36.1533   13.8601    6.2898 O   0  0  0  0  0  0  0  0  0  0  0  0
   31.2478   12.6554    7.1308 C   0  0  0  0  0  0  0  0  0  0  0  0
   30.3061   11.8727    7.7686 C   0  0  0  0  0  0  0  0  0  0  0  0
   29.1959   12.3204    8.4018 O   0  0  0  0  0  0  0  0  0  0  0  0
   29.1483   13.6687    8.8205 C   0  0  0  0  0  0  0  0  0  0  0  0
   30.2681   14.2787    9.7111 C   0  0  0  0  0  0  0  0  0  0  0  0
   31.4666   14.1356    9.4639 O   0  0  0  0  0  0  0  0  0  0  0  0
   29.8884   15.1322   10.7352 N   0  0  0  0  0  0  0  0  0  0  0  0
   30.9466   15.8597   11.4147 C   0  0  0  0  0  0  0  0  0  0  0  0
   28.7748   14.7455   11.5657 C   0  0  0  0  0  0  0  0  0  0  0  0
   30.5077   10.5059    7.8313 C   0  0  0  0  0  0  0  0  0  0  0  0
   32.2117    8.2826    8.4402 H   0  0  0  0  0  0  0  0  0  0  0  0
   32.4933    8.0575    6.6957 H   0  0  0  0  0  0  0  0  0  0  0  0
   30.8684    7.9295    7.4294 H   0  0  0  0  0  0  0  0  0  0  0  0
   33.4850   10.2610    6.2097 H   0  0  0  0  0  0  0  0  0  0  0  0
   34.2119   12.6264    5.7365 H   0  0  0  0  0  0  0  0  0  0  0  0
   34.7573   15.3188    6.6741 H   0  0  0  0  0  0  0  0  0  0  0  0
   35.7349   14.8057    8.0751 H   0  0  0  0  0  0  0  0  0  0  0  0
   36.5353   13.1223    6.8077 H   0  0  0  0  0  0  0  0  0  0  0  0
   31.1484   13.7293    7.1076 H   0  0  0  0  0  0  0  0  0  0  0  0
   28.1818   13.7745    9.3084 H   0  0  0  0  0  0  0  0  0  0  0  0
   29.0701   14.3153    7.9353 H   0  0  0  0  0  0  0  0  0  0  0  0
   31.4143   15.2030   12.1376 H   0  0  0  0  0  0  0  0  0  0  0  0
   31.7112   16.1946   10.7104 H   0  0  0  0  0  0  0  0  0  0  0  0
   30.5457   16.7371   11.9245 H   0  0  0  0  0  0  0  0  0  0  0  0
   28.9520   13.7476   11.9514 H   0  0  0  0  0  0  0  0  0  0  0  0
   28.6910   15.4220   12.4159 H   0  0  0  0  0  0  0  0  0  0  0  0
   27.8485   14.7519   10.9947 H   0  0  0  0  0  0  0  0  0  0  0  0
   29.8002    9.8873    8.3770 H   0  0  0  0  0  0  0  0  0  0  0  0
  1  2  1  0
  2  3  2  0
  3  4  1  0
  4  5  1  0
  5  6  1  0
  6  7  2  0
  6  8  1  0
  8  9  1  0
  4 10  2  0
 10 11  1  0
 11 12  1  0
 12 13  1  0
 13 14  1  0
 14 15  2  0
 14 16  1  0
 16 17  1  0
 16 18  1  0
 11 19  2  0
 19  2  1  0
  1 20  1  0
  1 21  1  0
  1 22  1  0
  3 23  1  0
  5 24  1  0
  8 25  1  0
  8 26  1  0
  9 27  1  0
 10 28  1  0
 13 29  1  0
 13 30  1  0
 17 31  1  0
 17 32  1  0
 17 33  1  0
 18 34  1  0
 18 35  1  0
 18 36  1  0
 19 37  1  0
M  END
