LIG
     RDKit          3D

 48 49  0  0  0  0  0  0  0  0999 V2000
   33.7826    9.2732    5.7828 C   0  0  0  0  0  0  0  0  0  0  0  0
   32.6403    9.9132    6.5156 C   0  0  0  0  0  0  0  0  0  0  0  0
   31.8557    9.2048    7.4328 C   0  0  0  0  0  0  0  0  0  0  0  0
   30.8254    9.8442    8.1283 C   0  0  0  0  0  0  0  0  0  0  0  0
   30.5485   11.1880    7.8906 C   0  0  0  0  0  0  0  0  0  0  0  0
   29.4938   11.7399    8.5428 O   0  0  0  0  0  0  0  0  0  0  0  0
   29.3635   13.1494    8.6419 C   0  0  0  0  0  0  0  0  0  0  0  0
   30.3702   13.9068    9.5442 C   0  0  0  0  0  0  0  0  0  0  0  0
   31.5849   13.7282    9.4661 O   0  0  0  0  0  0  0  0  0  0  0  0
   29.8712   14.8638   10.4316 N   0  0  0  0  0  0  0  0  0  0  0  0
   28.5742   14.6678   11.0267 C   0  0  0  0  0  0  0  0  0  0  0  0
   30.8583   15.5649   11.2361 C   0  0  0  0  0  0  0  0  0  0  0  0
   31.2809   11.8638    6.9367 C   0  0  0  0  0  0  0  0  0  0  0  0
   32.3156   11.2398    6.2453 C   0  0  0  0  0  0  0  0  0  0  0  0
   33.0322   11.8171    5.2349 O   0  0  0  0  0  0  0  0  0  0  0  0
   32.7867   13.1774    4.9234 C   0  0  0  0  0  0  0  0  0  0  0  0
   33.5053   13.9951    5.9641 C   0  0  0  0  0  0  0  0  0  0  0  0
   33.1310   13.9494    7.1381 O   0  0  0  0  0  0  0  0  0  0  0  0
   34.5943   14.7480    5.6027 N   0  0  0  0  0  0  0  0  0  0  0  0
   35.5639   14.9222    6.6749 C   0  0  0  0  0  0  0  0  0  0  0  0
   36.5846   13.7898    6.5350 C   0  0  0  0  0  0  0  0  0  0  0  0
   37.2887   13.9445    5.2837 O   0  0  0  0  0  0  0  0  0  0  0  0
   36.3693   13.7968    4.1837 C   0  0  0  0  0  0  0  0  0  0  0  0
   35.2258   14.8129    4.2788 C   0  0  0  0  0  0  0  0  0  0  0  0
   33.4670    8.9643    4.7841 H   0  0  0  0  0  0  0  0  0  0  0  0
   34.6254    9.9630    5.6732 H   0  0  0  0  0  0  0  0  0  0  0  0
   34.1543    8.4009    6.3149 H   0  0  0  0  0  0  0  0  0  0  0  0
   32.0416    8.1518    7.6274 H   0  0  0  0  0  0  0  0  0  0  0  0
   30.2329    9.2807    8.8438 H   0  0  0  0  0  0  0  0  0  0  0  0
   29.3642   13.6260    7.6545 H   0  0  0  0  0  0  0  0  0  0  0  0
   28.3445   13.3142    8.9974 H   0  0  0  0  0  0  0  0  0  0  0  0
   28.3661   13.6156   11.2065 H   0  0  0  0  0  0  0  0  0  0  0  0
   27.8179   15.0539   10.3399 H   0  0  0  0  0  0  0  0  0  0  0  0
   28.5284   15.1771   11.9907 H   0  0  0  0  0  0  0  0  0  0  0  0
   31.7770   15.7481   10.6739 H   0  0  0  0  0  0  0  0  0  0  0  0
   31.0863   14.9509   12.1002 H   0  0  0  0  0  0  0  0  0  0  0  0
   30.4770   16.5228   11.5864 H   0  0  0  0  0  0  0  0  0  0  0  0
   31.0291   12.8889    6.7235 H   0  0  0  0  0  0  0  0  0  0  0  0
   33.1684   13.3310    3.9168 H   0  0  0  0  0  0  0  0  0  0  0  0
   31.7259   13.4422    4.8691 H   0  0  0  0  0  0  0  0  0  0  0  0
   35.1105   14.9125    7.6697 H   0  0  0  0  0  0  0  0  0  0  0  0
   36.0352   15.8868    6.5119 H   0  0  0  0  0  0  0  0  0  0  0  0
   37.3149   13.7801    7.3468 H   0  0  0  0  0  0  0  0  0  0  0  0
   36.0943   12.8136    6.5267 H   0  0  0  0  0  0  0  0  0  0  0  0
   35.9862   12.7694    4.1808 H   0  0  0  0  0  0  0  0  0  0  0  0
   36.9314   13.9473    3.2569 H   0  0  0  0  0  0  0  0  0  0  0  0
   34.5033   14.6864    3.4720 H   0  0  0  0  0  0  0  0  0  0  0  0
   35.6526   15.8126    4.1654 H   0  0  0  0  0  0  0  0  0  0  0  0
  1  2  1  0
  2  3  2  0
  3  4  1  0
  4  5  2  0
  5  6  1  0
  6  7  1  0
  7  8  1  0
  8  9  2  0
  8 10  1  0
 10 11  1  0
 10 12  1  0
  5 13  1  0
 13 14  2  0
 14 15  1  0
 15 16  1  0
 16 17  1  0
 17 18  2  0
 17 19  1  0
 19 20  1  0
 20 21  1  0
 21 22  1  0
 22 23  1  0
 23 24  1  0
 14  2  1  0
 24 19  1  0
  1 25  1  0
  1 26  1  0
  1 27  1  0
  3 28  1  0
  4 29  1  0
  7 30  1  0
  7 31  1  0
 11 32  1  0
 11 33  1  0
 11 34  1  0
 12 35  1  0
 12 36  1  0
 12 37  1  0
 13 38  1  0
 16 39  1  0
 16 40  1  0
 20 41  1  0
 20 42  1  0
 21 43  1  0
 21 44  1  0
 23 45  1  0
 23 46  1  0
 24 47  1  0
 24 48  1  0
M  END
