LIG
     RDKit          3D

 41 42  0  0  0  0  0  0  0  0999 V2000
   35.0587    8.5900    4.0874 C   0  0  0  0  0  0  0  0  0  0  0  0
   35.2104   10.0641    4.2373 C   0  0  0  0  0  0  0  0  0  0  0  0
   36.1904   10.6644    3.7896 O   0  0  0  0  0  0  0  0  0  0  0  0
   34.2483   10.7906    4.8333 N   0  0  0  0  0  0  0  0  0  0  0  0
   33.1955   10.4982    5.6968 C   0  0  0  0  0  0  0  0  0  0  0  0
   32.8867    9.3203    6.3464 C   0  0  0  0  0  0  0  0  0  0  0  0
   31.8682    9.3016    7.3160 C   0  0  0  0  0  0  0  0  0  0  0  0
   31.4803    8.0897    8.0522 C   0  0  0  0  0  0  0  0  0  0  0  0
   31.2294   10.4548    7.6951 C   0  0  0  0  0  0  0  0  0  0  0  0
   31.5569   11.6003    7.0457 C   0  0  0  0  0  0  0  0  0  0  0  0
   31.0192   12.7185    7.5482 O   0  0  0  0  0  0  0  0  0  0  0  0
   31.8907   13.7937    7.3970 C   0  0  0  0  0  0  0  0  0  0  0  0
   33.3465   13.7335    7.8713 C   0  0  0  0  0  0  0  0  0  0  0  0
   33.5298   13.4562    9.0597 O   0  0  0  0  0  0  0  0  0  0  0  0
   34.4037   13.9499    6.9862 N   0  0  0  0  0  0  0  0  0  0  0  0
   35.7243   14.0084    7.6026 C   0  0  0  0  0  0  0  0  0  0  0  0
   36.7989   13.6107    6.5949 C   0  0  0  0  0  0  0  0  0  0  0  0
   36.8160   14.5404    5.5024 O   0  0  0  0  0  0  0  0  0  0  0  0
   35.5715   14.4769    4.8008 C   0  0  0  0  0  0  0  0  0  0  0  0
   34.3605   14.6971    5.7237 C   0  0  0  0  0  0  0  0  0  0  0  0
   32.4378   11.6017    5.9883 C   0  0  0  0  0  0  0  0  0  0  0  0
   35.6911    8.2485    3.2618 H   0  0  0  0  0  0  0  0  0  0  0  0
   34.0307    8.3286    3.8358 H   0  0  0  0  0  0  0  0  0  0  0  0
   35.3849    8.0888    4.9993 H   0  0  0  0  0  0  0  0  0  0  0  0
   34.4775   11.7713    4.7486 H   0  0  0  0  0  0  0  0  0  0  0  0
   33.4462    8.4166    6.1634 H   0  0  0  0  0  0  0  0  0  0  0  0
   30.4266    8.1129    8.3547 H   0  0  0  0  0  0  0  0  0  0  0  0
   32.0873    7.9532    8.9425 H   0  0  0  0  0  0  0  0  0  0  0  0
   31.5921    7.2709    7.3657 H   0  0  0  0  0  0  0  0  0  0  0  0
   30.4951   10.4691    8.4986 H   0  0  0  0  0  0  0  0  0  0  0  0
   31.4352   14.5344    8.0589 H   0  0  0  0  0  0  0  0  0  0  0  0
   31.8255   14.1125    6.3607 H   0  0  0  0  0  0  0  0  0  0  0  0
   35.7844   13.3801    8.4935 H   0  0  0  0  0  0  0  0  0  0  0  0
   35.8619   15.0403    7.9364 H   0  0  0  0  0  0  0  0  0  0  0  0
   37.7881   13.6086    7.0617 H   0  0  0  0  0  0  0  0  0  0  0  0
   36.6295   12.6053    6.1944 H   0  0  0  0  0  0  0  0  0  0  0  0
   35.5858   15.2426    4.0185 H   0  0  0  0  0  0  0  0  0  0  0  0
   35.5086   13.5082    4.2974 H   0  0  0  0  0  0  0  0  0  0  0  0
   34.3744   15.7299    6.0466 H   0  0  0  0  0  0  0  0  0  0  0  0
   33.4363   14.5174    5.1757 H   0  0  0  0  0  0  0  0  0  0  0  0
   32.5867   12.4922    5.3951 H   0  0  0  0  0  0  0  0  0  0  0  0
  1  2  1  0
  2  3  2  0
  2  4  1  0
  4  5  1  0
  5  6  2  0
  6  7  1  0
  7  8  1  0
  7  9  2  0
  9 10  1  0
 10 11  1  0
 11 12  1  0
 12 13  1  0
 13 14  2  0
 13 15  1  0
 15 16  1  0
 16 17  1  0
 17 18  1  0
 18 19  1  0
 19 20  1  0
 10 21  2  0
 21  5  1  0
 20 15  1  0
  1 22  1  0
  1 23  1  0
  1 24  1  0
  4 25  1  0
  6 26  1  0
  8 27  1  0
  8 28  1  0
  8 29  1  0
  9 30  1  0
 12 31  1  0
 12 32  1  0
 16 33  1  0
 16 34  1  0
 17 35  1  0
 17 36  1  0
 19 37  1  0
 19 38  1  0
 20 39  1  0
 20 40  1  0
 21 41  1  0
M  END
