LIG
     RDKit          3D

 41 42  0  0  0  0  0  0  0  0999 V2000
   34.4770    9.6170    4.1420 C   0  0  0  0  0  0  0  0  0  0  0  0
   34.7220   11.0190    4.6240 C   0  0  0  0  0  0  0  0  0  0  0  0
   35.7630   11.6170    4.3630 O   0  0  0  0  0  0  0  0  0  0  0  0
   33.6960   11.5950    5.3080 N   0  0  0  0  0  0  0  0  0  0  0  0
   33.0216   11.0094    6.9519 C   0  0  0  0  0  0  0  0  0  0  0  0
   31.5630    9.4800    8.9430 C   0  0  0  0  0  0  0  0  0  0  0  0
   32.6580    9.2460    8.1260 C   0  0  0  0  0  0  0  0  0  0  0  0
   33.3470   10.2740    7.4930 C   0  0  0  0  0  0  0  0  0  0  0  0
   34.5920    9.9920    6.6940 C   0  0  0  0  0  0  0  0  0  0  0  0
   32.8900   11.5720    7.6690 C   0  0  0  0  0  0  0  0  0  0  0  0
   33.3940   12.4720    6.7660 O   0  0  0  0  0  0  0  0  0  0  0  0
   32.5070   13.2300    6.0470 C   0  0  0  0  0  0  0  0  0  0  0  0
   32.8430   14.5690    6.5820 C   0  0  0  0  0  0  0  0  0  0  0  0
   32.2450   15.0040    7.5510 O   0  0  0  0  0  0  0  0  0  0  0  0
   33.9260   15.1770    6.0590 N   0  0  0  0  0  0  0  0  0  0  0  0
   34.5050   15.1130    4.7140 C   0  0  0  0  0  0  0  0  0  0  0  0
   35.9790   14.7950    4.8070 C   0  0  0  0  0  0  0  0  0  0  0  0
   36.6530   15.7410    5.6230 O   0  0  0  0  0  0  0  0  0  0  0  0
   36.2000   15.5640    6.9400 C   0  0  0  0  0  0  0  0  0  0  0  0
   34.7260   15.9040    7.0650 C   0  0  0  0  0  0  0  0  0  0  0  0
   31.8380   11.8440    8.5230 C   0  0  0  0  0  0  0  0  0  0  0  0
   33.5266    9.2525    4.5453 H   0  0  0  0  0  0  0  0  0  0  0  0
   35.2872    8.9664    4.4840 H   0  0  0  0  0  0  0  0  0  0  0  0
   34.4109    8.9170    4.9815 H   0  0  0  0  0  0  0  0  0  0  0  0
   33.0754   10.9760    5.8237 H   0  0  0  0  0  0  0  0  0  0  0  0
   30.6478    9.8452    8.4784 H   0  0  0  0  0  0  0  0  0  0  0  0
   32.9775    8.2017    7.9708 H   0  0  0  0  0  0  0  0  0  0  0  0
   34.4685   10.3460    5.6669 H   0  0  0  0  0  0  0  0  0  0  0  0
   35.0367   10.9151    6.3112 H   0  0  0  0  0  0  0  0  0  0  0  0
   35.4537   10.4875    7.1493 H   0  0  0  0  0  0  0  0  0  0  0  0
   31.4988   13.0018    6.2998 H   0  0  0  0  0  0  0  0  0  0  0  0
   32.7392   13.2079    5.0084 H   0  0  0  0  0  0  0  0  0  0  0  0
   33.9760   14.3169    4.1900 H   0  0  0  0  0  0  0  0  0  0  0  0
   34.3494   16.0494    4.1846 H   0  0  0  0  0  0  0  0  0  0  0  0
   36.4466   14.7818    3.8116 H   0  0  0  0  0  0  0  0  0  0  0  0
   36.1254   13.8015    5.2496 H   0  0  0  0  0  0  0  0  0  0  0  0
   36.3667   14.5155    7.2264 H   0  0  0  0  0  0  0  0  0  0  0  0
   36.8032   16.1844    7.6225 H   0  0  0  0  0  0  0  0  0  0  0  0
   34.3411   15.5914    8.0405 H   0  0  0  0  0  0  0  0  0  0  0  0
   34.5806   16.9793    6.9651 H   0  0  0  0  0  0  0  0  0  0  0  0
   30.8341   11.9461    8.1120 H   0  0  0  0  0  0  0  0  0  0  0  0
  1  2  1  0
  2  3  2  0
  2  4  1  0
  4  5  1  0
  5  6  4  0
  6  7  4  0
  7  8  4  0
  8  9  1  0
  8 10  4  0
 10 11  1  0
 11 12  1  0
 12 13  1  0
 13 14  2  0
 13 15  1  0
 15 16  1  0
 16 17  1  0
 17 18  1  0
 18 19  1  0
 19 20  1  0
 10 21  4  0
 21  5  4  0
 20 15  1  0
  1 22  1  0
  1 23  1  0
  1 24  1  0
  4 25  1  0
  6 26  1  0
  7 27  1  0
  9 28  1  0
  9 29  1  0
  9 30  1  0
 12 31  1  0
 12 32  1  0
 16 33  1  0
 16 34  1  0
 17 35  1  0
 17 36  1  0
 19 37  1  0
 19 38  1  0
 20 39  1  0
 20 40  1  0
 21 41  1  0
M  END
$$$$
LIG
     RDKit          3D

 41 42  0  0  0  0  0  0  0  0999 V2000
   34.4770    9.6170    4.1420 C   0  0  0  0  0  0  0  0  0  0  0  0
   34.7220   11.0190    4.6240 C   0  0  0  0  0  0  0  0  0  0  0  0
   35.7630   11.6170    4.3630 O   0  0  0  0  0  0  0  0  0  0  0  0
   33.6960   11.5950    5.3080 N   0  0  0  0  0  0  0  0  0  0  0  0
   33.0253   11.0100    6.9542 C   0  0  0  0  0  0  0  0  0  0  0  0
   31.5630    9.4800    8.9430 C   0  0  0  0  0  0  0  0  0  0  0  0
   32.6580    9.2460    8.1260 C   0  0  0  0  0  0  0  0  0  0  0  0
   33.3470   10.2740    7.4930 C   0  0  0  0  0  0  0  0  0  0  0  0
   34.5920    9.9920    6.6940 C   0  0  0  0  0  0  0  0  0  0  0  0
   32.8900   11.5720    7.6690 C   0  0  0  0  0  0  0  0  0  0  0  0
   33.3940   12.4720    6.7660 O   0  0  0  0  0  0  0  0  0  0  0  0
   32.5070   13.2300    6.0470 C   0  0  0  0  0  0  0  0  0  0  0  0
   32.8430   14.5690    6.5820 C   0  0  0  0  0  0  0  0  0  0  0  0
   32.2450   15.0040    7.5510 O   0  0  0  0  0  0  0  0  0  0  0  0
   33.9260   15.1770    6.0590 N   0  0  0  0  0  0  0  0  0  0  0  0
   34.7260   15.9040    7.0650 C   0  0  0  0  0  0  0  0  0  0  0  0
   36.2000   15.5640    6.9400 C   0  0  0  0  0  0  0  0  0  0  0  0
   36.6530   15.7410    5.6230 O   0  0  0  0  0  0  0  0  0  0  0  0
   35.9790   14.7950    4.8070 C   0  0  0  0  0  0  0  0  0  0  0  0
   34.5050   15.1130    4.7140 C   0  0  0  0  0  0  0  0  0  0  0  0
   31.8380   11.8440    8.5230 C   0  0  0  0  0  0  0  0  0  0  0  0
   35.0581    8.9147    4.7471 H   0  0  0  0  0  0  0  0  0  0  0  0
   34.7881    9.5001    3.0988 H   0  0  0  0  0  0  0  0  0  0  0  0
   35.4216    9.1732    3.8138 H   0  0  0  0  0  0  0  0  0  0  0  0
   33.6073   11.3636    6.2945 H   0  0  0  0  0  0  0  0  0  0  0  0
   30.8014   10.1741    8.5896 H   0  0  0  0  0  0  0  0  0  0  0  0
   32.9779    8.2020    7.9719 H   0  0  0  0  0  0  0  0  0  0  0  0
   35.0652   10.9182    6.3543 H   0  0  0  0  0  0  0  0  0  0  0  0
   35.3200    9.4526    7.3069 H   0  0  0  0  0  0  0  0  0  0  0  0
   34.3464    9.3959    5.8106 H   0  0  0  0  0  0  0  0  0  0  0  0
   31.4972   13.0050    6.2988 H   0  0  0  0  0  0  0  0  0  0  0  0
   32.7406   13.2042    5.0091 H   0  0  0  0  0  0  0  0  0  0  0  0
   34.5742   16.9800    6.9654 H   0  0  0  0  0  0  0  0  0  0  0  0
   34.3439   15.5888    8.0403 H   0  0  0  0  0  0  0  0  0  0  0  0
   36.3653   14.5153    7.2254 H   0  0  0  0  0  0  0  0  0  0  0  0
   36.8033   16.1833    7.6227 H   0  0  0  0  0  0  0  0  0  0  0  0
   36.4475   14.7814    3.8122 H   0  0  0  0  0  0  0  0  0  0  0  0
   36.1252   13.8019    5.2508 H   0  0  0  0  0  0  0  0  0  0  0  0
   34.3539   16.0459    4.1786 H   0  0  0  0  0  0  0  0  0  0  0  0
   33.9729   14.3161    4.1916 H   0  0  0  0  0  0  0  0  0  0  0  0
   31.1384   11.0469    8.7731 H   0  0  0  0  0  0  0  0  0  0  0  0
  1  2  1  0
  2  3  2  0
  2  4  1  0
  4  5  1  0
  5  6  4  0
  6  7  4  0
  7  8  4  0
  8  9  1  0
  8 10  4  0
 10 11  1  0
 11 12  1  0
 12 13  1  0
 13 14  2  0
 13 15  1  0
 15 16  1  0
 16 17  1  0
 17 18  1  0
 18 19  1  0
 19 20  1  0
 10 21  4  0
 21  5  4  0
 20 15  1  0
  1 22  1  0
  1 23  1  0
  1 24  1  0
  4 25  1  0
  6 26  1  0
  7 27  1  0
  9 28  1  0
  9 29  1  0
  9 30  1  0
 12 31  1  0
 12 32  1  0
 16 33  1  0
 16 34  1  0
 17 35  1  0
 17 36  1  0
 19 37  1  0
 19 38  1  0
 20 39  1  0
 20 40  1  0
 21 41  1  0
M  END
$$$$
LIG
     RDKit          3D

 41 42  0  0  0  0  0  0  0  0999 V2000
   34.4770    9.6170    4.1420 C   0  0  0  0  0  0  0  0  0  0  0  0
   34.7220   11.0190    4.6240 C   0  0  0  0  0  0  0  0  0  0  0  0
   35.7630   11.6170    4.3630 O   0  0  0  0  0  0  0  0  0  0  0  0
   33.6960   11.5950    5.3080 N   0  0  0  0  0  0  0  0  0  0  0  0
   33.0289   10.6365    6.9144 C   0  0  0  0  0  0  0  0  0  0  0  0
   31.5630    9.4800    8.9430 C   0  0  0  0  0  0  0  0  0  0  0  0
   32.6580    9.2460    8.1260 C   0  0  0  0  0  0  0  0  0  0  0  0
   33.3470   10.2740    7.4930 C   0  0  0  0  0  0  0  0  0  0  0  0
   34.5920    9.9920    6.6940 C   0  0  0  0  0  0  0  0  0  0  0  0
   32.8900   11.5720    7.6690 C   0  0  0  0  0  0  0  0  0  0  0  0
   33.3940   12.4720    6.7660 O   0  0  0  0  0  0  0  0  0  0  0  0
   32.5070   13.2300    6.0470 C   0  0  0  0  0  0  0  0  0  0  0  0
   32.8430   14.5690    6.5820 C   0  0  0  0  0  0  0  0  0  0  0  0
   32.2450   15.0040    7.5510 O   0  0  0  0  0  0  0  0  0  0  0  0
   33.9260   15.1770    6.0590 N   0  0  0  0  0  0  0  0  0  0  0  0
   34.5050   15.1130    4.7140 C   0  0  0  0  0  0  0  0  0  0  0  0
   35.9790   14.7950    4.8070 C   0  0  0  0  0  0  0  0  0  0  0  0
   36.6530   15.7410    5.6230 O   0  0  0  0  0  0  0  0  0  0  0  0
   36.2000   15.5640    6.9400 C   0  0  0  0  0  0  0  0  0  0  0  0
   34.7260   15.9040    7.0650 C   0  0  0  0  0  0  0  0  0  0  0  0
   31.8380   11.8440    8.5230 C   0  0  0  0  0  0  0  0  0  0  0  0
   33.9681    9.0462    4.9244 H   0  0  0  0  0  0  0  0  0  0  0  0
   33.4011    9.4138    4.1403 H   0  0  0  0  0  0  0  0  0  0  0  0
   34.9558    8.8829    4.7982 H   0  0  0  0  0  0  0  0  0  0  0  0
   32.7675   11.5307    4.8969 H   0  0  0  0  0  0  0  0  0  0  0  0
   31.0769    8.6303    9.4205 H   0  0  0  0  0  0  0  0  0  0  0  0
   32.9878    8.2025    7.9784 H   0  0  0  0  0  0  0  0  0  0  0  0
   34.4611   10.3238    5.6592 H   0  0  0  0  0  0  0  0  0  0  0  0
   35.0256   10.9126    6.2901 H   0  0  0  0  0  0  0  0  0  0  0  0
   34.3590    9.3357    5.8496 H   0  0  0  0  0  0  0  0  0  0  0  0
   32.7446   13.2137    5.0107 H   0  0  0  0  0  0  0  0  0  0  0  0
   31.5051   13.0003    6.3188 H   0  0  0  0  0  0  0  0  0  0  0  0
   34.3489   16.0499    4.1844 H   0  0  0  0  0  0  0  0  0  0  0  0
   33.9752   14.3168    4.1900 H   0  0  0  0  0  0  0  0  0  0  0  0
   36.4469   14.7814    3.8116 H   0  0  0  0  0  0  0  0  0  0  0  0
   36.1253   13.8015    5.2501 H   0  0  0  0  0  0  0  0  0  0  0  0
   36.3654   14.5156    7.2250 H   0  0  0  0  0  0  0  0  0  0  0  0
   36.8032   16.1836    7.6222 H   0  0  0  0  0  0  0  0  0  0  0  0
   34.3415   15.5891    8.0402 H   0  0  0  0  0  0  0  0  0  0  0  0
   34.5809   16.9800    6.9698 H   0  0  0  0  0  0  0  0  0  0  0  0
   32.0182   12.3475    9.4682 H   0  0  0  0  0  0  0  0  0  0  0  0
  1  2  1  0
  2  3  2  0
  2  4  1  0
  4  5  1  0
  5  6  4  0
  6  7  4  0
  7  8  4  0
  8  9  1  0
  8 10  4  0
 10 11  1  0
 11 12  1  0
 12 13  1  0
 13 14  2  0
 13 15  1  0
 15 16  1  0
 16 17  1  0
 17 18  1  0
 18 19  1  0
 19 20  1  0
 10 21  4  0
 21  5  4  0
 20 15  1  0
  1 22  1  0
  1 23  1  0
  1 24  1  0
  4 25  1  0
  6 26  1  0
  7 27  1  0
  9 28  1  0
  9 29  1  0
  9 30  1  0
 12 31  1  0
 12 32  1  0
 16 33  1  0
 16 34  1  0
 17 35  1  0
 17 36  1  0
 19 37  1  0
 19 38  1  0
 20 39  1  0
 20 40  1  0
 21 41  1  0
M  END
$$$$
