LIG
     RDKit          3D

 42 43  0  0  0  0  0  0  0  0999 V2000
   31.6365    8.2644    7.9602 C   0  0  0  0  0  0  0  0  0  0  0  0
   31.5533    9.6958    7.5993 C   0  0  0  0  0  0  0  0  0  0  0  0
   30.4096   10.3714    7.9712 C   0  0  0  0  0  0  0  0  0  0  0  0
   30.1835   11.6721    7.5496 C   0  0  0  0  0  0  0  0  0  0  0  0
   28.8450   12.0618    7.6131 N   0  0  0  0  0  0  0  0  0  0  0  0
   28.2275   13.1750    7.1552 C   0  0  0  0  0  0  0  0  0  0  0  0
   27.0965   13.0592    6.6764 O   0  0  0  0  0  0  0  0  0  0  0  0
   28.8594   14.5095    7.4028 C   0  0  0  0  0  0  0  0  0  0  0  0
   28.0586   15.1544    8.4221 C   0  0  0  0  0  0  0  0  0  0  0  0
   27.4053   15.5881    9.2726 N   0  0  0  0  0  0  0  0  0  0  0  0
   31.2123   12.3763    6.9464 C   0  0  0  0  0  0  0  0  0  0  0  0
   32.4073   11.7201    6.6829 C   0  0  0  0  0  0  0  0  0  0  0  0
   33.4645   12.4303    6.2211 O   0  0  0  0  0  0  0  0  0  0  0  0
   33.4754   12.4516    4.8012 C   0  0  0  0  0  0  0  0  0  0  0  0
   34.0647   13.7954    4.4481 C   0  0  0  0  0  0  0  0  0  0  0  0
   33.3061   14.6970    4.0810 O   0  0  0  0  0  0  0  0  0  0  0  0
   35.4479   13.9242    4.5464 N   0  0  0  0  0  0  0  0  0  0  0  0
   36.2590   13.0886    5.4419 C   0  0  0  0  0  0  0  0  0  0  0  0
   37.7457   13.1430    5.0707 C   0  0  0  0  0  0  0  0  0  0  0  0
   38.2342   14.4841    4.9654 O   0  0  0  0  0  0  0  0  0  0  0  0
   37.4787   15.2166    3.9862 C   0  0  0  0  0  0  0  0  0  0  0  0
   36.0033   15.2594    4.3723 C   0  0  0  0  0  0  0  0  0  0  0  0
   32.5608   10.3699    6.9298 C   0  0  0  0  0  0  0  0  0  0  0  0
   30.6576    7.7920    7.8725 H   0  0  0  0  0  0  0  0  0  0  0  0
   31.9661    8.1323    8.9877 H   0  0  0  0  0  0  0  0  0  0  0  0
   32.3261    7.7651    7.2847 H   0  0  0  0  0  0  0  0  0  0  0  0
   29.6436    9.8045    8.4884 H   0  0  0  0  0  0  0  0  0  0  0  0
   28.1922   11.2872    7.7406 H   0  0  0  0  0  0  0  0  0  0  0  0
   28.8863   15.0674    6.4658 H   0  0  0  0  0  0  0  0  0  0  0  0
   29.8657   14.4267    7.8072 H   0  0  0  0  0  0  0  0  0  0  0  0
   31.1210   13.3935    6.5983 H   0  0  0  0  0  0  0  0  0  0  0  0
   34.0766   11.6323    4.3947 H   0  0  0  0  0  0  0  0  0  0  0  0
   32.4760   12.4005    4.3550 H   0  0  0  0  0  0  0  0  0  0  0  0
   36.1113   13.4778    6.4565 H   0  0  0  0  0  0  0  0  0  0  0  0
   35.9250   12.0493    5.4226 H   0  0  0  0  0  0  0  0  0  0  0  0
   38.3405   12.6362    5.8360 H   0  0  0  0  0  0  0  0  0  0  0  0
   37.9239   12.6294    4.1183 H   0  0  0  0  0  0  0  0  0  0  0  0
   37.8868   16.2310    3.9433 H   0  0  0  0  0  0  0  0  0  0  0  0
   37.6212   14.7511    3.0039 H   0  0  0  0  0  0  0  0  0  0  0  0
   35.4273   15.8283    3.6369 H   0  0  0  0  0  0  0  0  0  0  0  0
   35.9200   15.7162    5.3600 H   0  0  0  0  0  0  0  0  0  0  0  0
   33.4727    9.8624    6.6350 H   0  0  0  0  0  0  0  0  0  0  0  0
  1  2  1  0
  2  3  2  0
  3  4  1  0
  4  5  1  0
  5  6  1  0
  6  7  2  0
  6  8  1  0
  8  9  1  0
  9 10  3  0
  4 11  2  0
 11 12  1  0
 12 13  1  0
 13 14  1  0
 14 15  1  0
 15 16  2  0
 15 17  1  0
 17 18  1  0
 18 19  1  0
 19 20  1  0
 20 21  1  0
 21 22  1  0
 12 23  2  0
 23  2  1  0
 22 17  1  0
  1 24  1  0
  1 25  1  0
  1 26  1  0
  3 27  1  0
  5 28  1  0
  8 29  1  0
  8 30  1  0
 11 31  1  0
 14 32  1  0
 14 33  1  0
 18 34  1  0
 18 35  1  0
 19 36  1  0
 19 37  1  0
 21 38  1  0
 21 39  1  0
 22 40  1  0
 22 41  1  0
 23 42  1  0
M  END
