LIG
     RDKit          3D

 41 43  0  0  0  0  0  0  0  0999 V2000
   27.7359   15.6925    9.1041 C   0  0  0  0  0  0  0  0  0  0  0  0
   28.2759   14.5346    8.5106 N   0  0  0  0  0  0  0  0  0  0  0  0
   27.8726   14.0934    7.2098 C   0  0  0  0  0  0  0  0  0  0  0  0
   28.6568   12.8305    7.0501 C   0  0  0  0  0  0  0  0  0  0  0  0
   29.9844   13.2305    7.6620 C   0  0  0  0  0  0  0  0  0  0  0  0
   30.5837   12.1084    8.2593 O   0  0  0  0  0  0  0  0  0  0  0  0
   31.8058   11.9743    7.7008 C   0  0  0  0  0  0  0  0  0  0  0  0
   32.7621   12.9642    7.8571 C   0  0  0  0  0  0  0  0  0  0  0  0
   33.8793   12.9919    7.1443 N   0  0  0  0  0  0  0  0  0  0  0  0
   34.0516   11.9807    6.2737 C   0  0  0  0  0  0  0  0  0  0  0  0
   33.1403   10.9658    6.0540 C   0  0  0  0  0  0  0  0  0  0  0  0
   33.3083   10.0171    5.0665 N   0  0  0  0  0  0  0  0  0  0  0  0
   33.9239   10.1216    3.8428 C   0  0  0  0  0  0  0  0  0  0  0  0
   33.9720    9.0579    3.2053 O   0  0  0  0  0  0  0  0  0  0  0  0
   34.3909   11.4371    3.0831 C   0  0  0  0  0  0  0  0  0  0  0  0
   33.2538   12.1338    2.3320 C   0  0  0  0  0  0  0  0  0  0  0  0
   33.1367   13.4732    3.0138 C   0  0  0  0  0  0  0  0  0  0  0  0
   34.5734   13.7429    3.3848 C   0  0  0  0  0  0  0  0  0  0  0  0
   35.1335   12.4660    3.7146 O   0  0  0  0  0  0  0  0  0  0  0  0
   32.0176   10.9086    6.8528 C   0  0  0  0  0  0  0  0  0  0  0  0
   29.6378   14.2887    8.6847 C   0  0  0  0  0  0  0  0  0  0  0  0
   30.4041   14.8739    9.4369 O   0  0  0  0  0  0  0  0  0  0  0  0
   28.2661   16.5640    8.7169 H   0  0  0  0  0  0  0  0  0  0  0  0
   27.8806   15.5413   10.1702 H   0  0  0  0  0  0  0  0  0  0  0  0
   26.6742   15.7566    8.9035 H   0  0  0  0  0  0  0  0  0  0  0  0
   26.8044   13.9126    7.1532 H   0  0  0  0  0  0  0  0  0  0  0  0
   28.1808   14.8367    6.4701 H   0  0  0  0  0  0  0  0  0  0  0  0
   28.7601   12.5328    6.0055 H   0  0  0  0  0  0  0  0  0  0  0  0
   28.1992   11.9983    7.5885 H   0  0  0  0  0  0  0  0  0  0  0  0
   30.5674   13.7194    6.8682 H   0  0  0  0  0  0  0  0  0  0  0  0
   32.6326   13.7895    8.5500 H   0  0  0  0  0  0  0  0  0  0  0  0
   35.0347   11.9792    5.8168 H   0  0  0  0  0  0  0  0  0  0  0  0
   32.9545    9.0824    5.2455 H   0  0  0  0  0  0  0  0  0  0  0  0
   35.0795   11.0370    2.3245 H   0  0  0  0  0  0  0  0  0  0  0  0
   32.3225   11.5692    2.3255 H   0  0  0  0  0  0  0  0  0  0  0  0
   33.5475   12.2849    1.2854 H   0  0  0  0  0  0  0  0  0  0  0  0
   32.7019   14.2524    2.3827 H   0  0  0  0  0  0  0  0  0  0  0  0
   32.5226   13.3773    3.9163 H   0  0  0  0  0  0  0  0  0  0  0  0
   34.6723   14.4245    4.2342 H   0  0  0  0  0  0  0  0  0  0  0  0
   35.1355   14.1521    2.5383 H   0  0  0  0  0  0  0  0  0  0  0  0
   31.2750   10.1269    6.7474 H   0  0  0  0  0  0  0  0  0  0  0  0
  1  2  1  0
  2  3  1  0
  3  4  1  0
  4  5  1  0
  5  6  1  0
  6  7  1  0
  7  8  2  0
  8  9  1  0
  9 10  2  0
 10 11  1  0
 11 12  1  0
 12 13  1  0
 13 14  2  0
 13 15  1  0
 15 16  1  0
 16 17  1  0
 17 18  1  0
 18 19  1  0
 11 20  2  0
  5 21  1  0
 21 22  2  0
 21  2  1  0
 20  7  1  0
 19 15  1  0
  1 23  1  0
  1 24  1  0
  1 25  1  0
  3 26  1  0
  3 27  1  0
  4 28  1  0
  4 29  1  0
  5 30  1  0
  8 31  1  0
 10 32  1  0
 12 33  1  0
 15 34  1  0
 16 35  1  0
 16 36  1  0
 17 37  1  0
 17 38  1  0
 18 39  1  0
 18 40  1  0
 20 41  1  0
M  END
