LIG
     RDKit          3D

 41 43  0  0  0  0  0  0  0  0999 V2000
   27.7117   15.7035    9.1011 C   0  0  0  0  0  0  0  0  0  0  0  0
   28.2417   14.5449    8.5018 N   0  0  0  0  0  0  0  0  0  0  0  0
   27.8556   14.1287    7.1875 C   0  0  0  0  0  0  0  0  0  0  0  0
   28.6384   12.8700    7.0041 C   0  0  0  0  0  0  0  0  0  0  0  0
   29.9532   13.2419    7.6569 C   0  0  0  0  0  0  0  0  0  0  0  0
   30.4810   12.1069    8.2988 O   0  0  0  0  0  0  0  0  0  0  0  0
   31.7358   11.9703    7.8206 C   0  0  0  0  0  0  0  0  0  0  0  0
   32.7148   12.8823    8.1907 C   0  0  0  0  0  0  0  0  0  0  0  0
   33.8924   12.9578    7.5823 N   0  0  0  0  0  0  0  0  0  0  0  0
   34.0548   12.1425    6.5273 C   0  0  0  0  0  0  0  0  0  0  0  0
   33.1006   11.2261    6.0934 C   0  0  0  0  0  0  0  0  0  0  0  0
   33.1520   10.8516    4.7417 N   0  0  0  0  0  0  0  0  0  0  0  0
   32.8611   11.9670    3.8958 C   0  0  0  0  0  0  0  0  0  0  0  0
   32.0364   12.8455    4.1723 O   0  0  0  0  0  0  0  0  0  0  0  0
   33.7242   12.0310    2.6193 C   0  0  0  0  0  0  0  0  0  0  0  0
   33.3811   13.2055    1.7179 C   0  0  0  0  0  0  0  0  0  0  0  0
   34.1200   14.3425    2.3775 C   0  0  0  0  0  0  0  0  0  0  0  0
   35.3576   13.6602    2.9272 C   0  0  0  0  0  0  0  0  0  0  0  0
   35.0710   12.2538    3.0592 O   0  0  0  0  0  0  0  0  0  0  0  0
   31.9391   11.0653    6.8052 C   0  0  0  0  0  0  0  0  0  0  0  0
   29.6041   14.3019    8.6756 C   0  0  0  0  0  0  0  0  0  0  0  0
   30.3619   14.8851    9.4387 O   0  0  0  0  0  0  0  0  0  0  0  0
   27.8567   15.5461   10.1662 H   0  0  0  0  0  0  0  0  0  0  0  0
   26.6504   15.7759    8.9034 H   0  0  0  0  0  0  0  0  0  0  0  0
   28.2484   16.5732    8.7191 H   0  0  0  0  0  0  0  0  0  0  0  0
   28.1738   14.8860    6.4674 H   0  0  0  0  0  0  0  0  0  0  0  0
   26.7885   13.9454    7.1179 H   0  0  0  0  0  0  0  0  0  0  0  0
   28.7639   12.6089    5.9519 H   0  0  0  0  0  0  0  0  0  0  0  0
   28.1622   12.0217    7.5019 H   0  0  0  0  0  0  0  0  0  0  0  0
   30.5888   13.7097    6.8909 H   0  0  0  0  0  0  0  0  0  0  0  0
   32.5538   13.6065    8.9831 H   0  0  0  0  0  0  0  0  0  0  0  0
   34.9780   12.3102    5.9761 H   0  0  0  0  0  0  0  0  0  0  0  0
   34.0791   10.5093    4.4796 H   0  0  0  0  0  0  0  0  0  0  0  0
   33.6521   11.0723    2.0961 H   0  0  0  0  0  0  0  0  0  0  0  0
   32.3085   13.3925    1.6159 H   0  0  0  0  0  0  0  0  0  0  0  0
   33.7977   13.0353    0.7179 H   0  0  0  0  0  0  0  0  0  0  0  0
   33.5299   14.7654    3.1983 H   0  0  0  0  0  0  0  0  0  0  0  0
   34.3600   15.1608    1.6927 H   0  0  0  0  0  0  0  0  0  0  0  0
   36.2026   13.7591    2.2382 H   0  0  0  0  0  0  0  0  0  0  0  0
   35.6557   14.0631    3.8997 H   0  0  0  0  0  0  0  0  0  0  0  0
   31.1524   10.4051    6.4723 H   0  0  0  0  0  0  0  0  0  0  0  0
  1  2  1  0
  2  3  1  0
  3  4  1  0
  4  5  1  0
  5  6  1  0
  6  7  1  0
  7  8  2  0
  8  9  1  0
  9 10  2  0
 10 11  1  0
 11 12  1  0
 12 13  1  0
 13 14  2  0
 13 15  1  0
 15 16  1  0
 16 17  1  0
 17 18  1  0
 18 19  1  0
 11 20  2  0
  5 21  1  0
 21 22  2  0
 21  2  1  0
 20  7  1  0
 19 15  1  0
  1 23  1  0
  1 24  1  0
  1 25  1  0
  3 26  1  0
  3 27  1  0
  4 28  1  0
  4 29  1  0
  5 30  1  0
  8 31  1  0
 10 32  1  0
 12 33  1  0
 15 34  1  0
 16 35  1  0
 16 36  1  0
 17 37  1  0
 17 38  1  0
 18 39  1  0
 18 40  1  0
 20 41  1  0
M  END
