LIG
     RDKit          3D

 41 42  0  0  0  0  0  0  0  0999 V2000
   34.4770    9.6170    4.1420 C   0  0  0  0  0  0  0  0  0  0  0  0
   34.7220   11.0190    4.6240 C   0  0  0  0  0  0  0  0  0  0  0  0
   35.7630   11.6170    4.3630 O   0  0  0  0  0  0  0  0  0  0  0  0
   33.6960   11.5950    5.3080 N   0  0  0  0  0  0  0  0  0  0  0  0
   33.0188   11.0080    6.9526 C   0  0  0  0  0  0  0  0  0  0  0  0
   31.5630    9.4800    8.9430 C   0  0  0  0  0  0  0  0  0  0  0  0
   32.6580    9.2460    8.1260 C   0  0  0  0  0  0  0  0  0  0  0  0
   33.1486    7.8105    7.9544 C   0  0  0  0  0  0  0  0  0  0  0  0
   33.3470   10.2740    7.4930 C   0  0  0  0  0  0  0  0  0  0  0  0
   32.8900   11.5720    7.6690 C   0  0  0  0  0  0  0  0  0  0  0  0
   33.3940   12.4720    6.7660 O   0  0  0  0  0  0  0  0  0  0  0  0
   32.5070   13.2300    6.0470 C   0  0  0  0  0  0  0  0  0  0  0  0
   32.8430   14.5690    6.5820 C   0  0  0  0  0  0  0  0  0  0  0  0
   32.2450   15.0040    7.5510 O   0  0  0  0  0  0  0  0  0  0  0  0
   33.9260   15.1770    6.0590 N   0  0  0  0  0  0  0  0  0  0  0  0
   34.7260   15.9040    7.0650 C   0  0  0  0  0  0  0  0  0  0  0  0
   36.2000   15.5640    6.9400 C   0  0  0  0  0  0  0  0  0  0  0  0
   36.6530   15.7410    5.6230 O   0  0  0  0  0  0  0  0  0  0  0  0
   35.9790   14.7950    4.8070 C   0  0  0  0  0  0  0  0  0  0  0  0
   34.5050   15.1130    4.7140 C   0  0  0  0  0  0  0  0  0  0  0  0
   31.8380   11.8440    8.5230 C   0  0  0  0  0  0  0  0  0  0  0  0
   33.5465    9.5842    3.5677 H   0  0  0  0  0  0  0  0  0  0  0  0
   34.4116    9.5851    3.0493 H   0  0  0  0  0  0  0  0  0  0  0  0
   33.5282    9.2502    4.5467 H   0  0  0  0  0  0  0  0  0  0  0  0
   33.1431   10.9875    5.9070 H   0  0  0  0  0  0  0  0  0  0  0  0
   31.3022    8.7277    9.6873 H   0  0  0  0  0  0  0  0  0  0  0  0
   32.3030    7.1335    7.7959 H   0  0  0  0  0  0  0  0  0  0  0  0
   33.6988    7.4947    8.8461 H   0  0  0  0  0  0  0  0  0  0  0  0
   33.8097    7.7151    7.0869 H   0  0  0  0  0  0  0  0  0  0  0  0
   34.2068   10.0800    6.8823 H   0  0  0  0  0  0  0  0  0  0  0  0
   32.7431   13.2130    5.0086 H   0  0  0  0  0  0  0  0  0  0  0  0
   31.5030   12.9914    6.3080 H   0  0  0  0  0  0  0  0  0  0  0  0
   34.3393   15.5926    8.0420 H   0  0  0  0  0  0  0  0  0  0  0  0
   34.5645   16.9792    6.9540 H   0  0  0  0  0  0  0  0  0  0  0  0
   36.7963   16.1979    7.6002 H   0  0  0  0  0  0  0  0  0  0  0  0
   36.3731   14.5258    7.2252 H   0  0  0  0  0  0  0  0  0  0  0  0
   36.4401   14.8097    3.8242 H   0  0  0  0  0  0  0  0  0  0  0  0
   36.1299   13.8125    5.2482 H   0  0  0  0  0  0  0  0  0  0  0  0
   33.9837   14.3689    4.1080 H   0  0  0  0  0  0  0  0  0  0  0  0
   34.3481   16.0983    4.2644 H   0  0  0  0  0  0  0  0  0  0  0  0
   31.7887   11.3871    9.5082 H   0  0  0  0  0  0  0  0  0  0  0  0
  1  2  1  0
  2  3  2  0
  2  4  1  0
  4  5  1  0
  5  6  4  0
  6  7  4  0
  7  8  1  0
  7  9  4  0
  9 10  4  0
 10 11  1  0
 11 12  1  0
 12 13  1  0
 13 14  2  0
 13 15  1  0
 15 16  1  0
 16 17  1  0
 17 18  1  0
 18 19  1  0
 19 20  1  0
 10 21  4  0
 21  5  4  0
 20 15  1  0
  1 22  1  0
  1 23  1  0
  1 24  1  0
  4 25  1  0
  6 26  1  0
  8 27  1  0
  8 28  1  0
  8 29  1  0
  9 30  1  0
 12 31  1  0
 12 32  1  0
 16 33  1  0
 16 34  1  0
 17 35  1  0
 17 36  1  0
 19 37  1  0
 19 38  1  0
 20 39  1  0
 20 40  1  0
 21 41  1  0
M  END
