LIG
     RDKit          3D

 38 39  0  0  0  0  0  0  0  0999 V2000
   34.4696   10.2723    4.9739 C   0  0  0  0  0  0  0  0  0  0  0  0
   33.3396   10.3944    5.9479 C   0  0  0  0  0  0  0  0  0  0  0  0
   32.6505    9.2486    6.3464 C   0  0  0  0  0  0  0  0  0  0  0  0
   31.5963    9.2999    7.2546 C   0  0  0  0  0  0  0  0  0  0  0  0
   31.1521   10.5265    7.7168 C   0  0  0  0  0  0  0  0  0  0  0  0
   31.8273   11.6854    7.3395 C   0  0  0  0  0  0  0  0  0  0  0  0
   31.4634   12.9661    7.6523 O   0  0  0  0  0  0  0  0  0  0  0  0
   30.2901   13.1106    8.3936 C   0  0  0  0  0  0  0  0  0  0  0  0
   29.0804   13.0117    7.4717 C   0  0  0  0  0  0  0  0  0  0  0  0
   28.0683   13.7828    8.2486 C   0  0  0  0  0  0  0  0  0  0  0  0
   28.8270   14.8570    8.8042 N   0  0  0  0  0  0  0  0  0  0  0  0
   28.4284   16.1830    8.5062 C   0  0  0  0  0  0  0  0  0  0  0  0
   30.1586   14.5075    8.9749 C   0  0  0  0  0  0  0  0  0  0  0  0
   31.0514   15.2094    9.4264 O   0  0  0  0  0  0  0  0  0  0  0  0
   32.9786   11.6009    6.5434 C   0  0  0  0  0  0  0  0  0  0  0  0
   33.8170   12.7265    6.4345 N   0  0  0  0  0  0  0  0  0  0  0  0
   34.2762   13.3655    7.5895 C   0  0  0  0  0  0  0  0  0  0  0  0
   34.0118   13.0196    8.7451 O   0  0  0  0  0  0  0  0  0  0  0  0
   35.1839   14.5496    7.3361 C   0  0  0  0  0  0  0  0  0  0  0  0
   35.7432   14.6804    5.6096 S   0  0  0  0  0  0  0  0  0  0  0  0
   34.6667    9.2279    4.7093 H   0  0  0  0  0  0  0  0  0  0  0  0
   35.3955   10.6860    5.3812 H   0  0  0  0  0  0  0  0  0  0  0  0
   34.2203   10.8055    4.0505 H   0  0  0  0  0  0  0  0  0  0  0  0
   32.9778    8.2862    5.9812 H   0  0  0  0  0  0  0  0  0  0  0  0
   31.1062    8.3854    7.5830 H   0  0  0  0  0  0  0  0  0  0  0  0
   30.2955   10.5270    8.3818 H   0  0  0  0  0  0  0  0  0  0  0  0
   30.2525   12.4314    9.2297 H   0  0  0  0  0  0  0  0  0  0  0  0
   29.2882   13.4881    6.5044 H   0  0  0  0  0  0  0  0  0  0  0  0
   28.7590   11.9881    7.2677 H   0  0  0  0  0  0  0  0  0  0  0  0
   27.7191   13.1827    9.0862 H   0  0  0  0  0  0  0  0  0  0  0  0
   27.2418   14.1330    7.6292 H   0  0  0  0  0  0  0  0  0  0  0  0
   28.3392   16.2548    7.4217 H   0  0  0  0  0  0  0  0  0  0  0  0
   27.4785   16.3448    9.0127 H   0  0  0  0  0  0  0  0  0  0  0  0
   29.1700   16.9135    8.7906 H   0  0  0  0  0  0  0  0  0  0  0  0
   34.5055   12.7482    5.6919 H   0  0  0  0  0  0  0  0  0  0  0  0
   36.0617   14.4472    7.9791 H   0  0  0  0  0  0  0  0  0  0  0  0
   34.6440   15.4531    7.6085 H   0  0  0  0  0  0  0  0  0  0  0  0
   35.6460   16.0241    5.5348 H   0  0  0  0  0  0  0  0  0  0  0  0
  1  2  1  0
  2  3  2  0
  3  4  1  0
  4  5  2  0
  5  6  1  0
  6  7  1  0
  7  8  1  0
  8  9  1  0
  9 10  1  0
 10 11  1  0
 11 12  1  0
 11 13  1  0
 13 14  2  0
  6 15  2  0
 15 16  1  0
 16 17  1  0
 17 18  2  0
 17 19  1  0
 19 20  1  0
 15  2  1  0
 13  8  1  0
  1 21  1  0
  1 22  1  0
  1 23  1  0
  3 24  1  0
  4 25  1  0
  5 26  1  0
  8 27  1  0
  9 28  1  0
  9 29  1  0
 10 30  1  0
 10 31  1  0
 12 32  1  0
 12 33  1  0
 12 34  1  0
 16 35  1  0
 19 36  1  0
 19 37  1  0
 20 38  1  0
M  END
