LIG
     RDKit          3D

 38 39  0  0  0  0  0  0  0  0999 V2000
   32.1528    8.0973    7.5169 C   0  0  0  0  0  0  0  0  0  0  0  0
   32.0853    9.5110    7.1248 C   0  0  0  0  0  0  0  0  0  0  0  0
   31.1739   10.2648    7.8398 C   0  0  0  0  0  0  0  0  0  0  0  0
   31.0587   11.5899    7.5367 C   0  0  0  0  0  0  0  0  0  0  0  0
   30.0320   12.2993    8.1509 N   0  0  0  0  0  0  0  0  0  0  0  0
   29.2032   13.0698    7.3610 C   0  0  0  0  0  0  0  0  0  0  0  0
   29.3065   13.1958    6.1406 O   0  0  0  0  0  0  0  0  0  0  0  0
   28.1173   13.7472    8.1197 C   0  0  0  0  0  0  0  0  0  0  0  0
   28.4042   15.1624    8.1565 C   0  0  0  0  0  0  0  0  0  0  0  0
   28.6570   16.2903    8.1992 N   0  0  0  0  0  0  0  0  0  0  0  0
   31.8912   12.1803    6.5863 C   0  0  0  0  0  0  0  0  0  0  0  0
   32.8188   11.4305    5.8701 C   0  0  0  0  0  0  0  0  0  0  0  0
   33.6281   11.9866    4.8660 N   0  0  0  0  0  0  0  0  0  0  0  0
   33.7436   13.3326    4.5690 C   0  0  0  0  0  0  0  0  0  0  0  0
   33.2575   14.2643    5.2039 O   0  0  0  0  0  0  0  0  0  0  0  0
   34.5640   13.5985    3.3056 C   0  0  0  0  0  0  0  0  0  0  0  0
   33.8042   14.5379    2.3785 C   0  0  0  0  0  0  0  0  0  0  0  0
   34.3214   14.1393    1.0234 C   0  0  0  0  0  0  0  0  0  0  0  0
   34.4860   12.6461    1.1810 C   0  0  0  0  0  0  0  0  0  0  0  0
   34.8505   12.4073    2.5482 O   0  0  0  0  0  0  0  0  0  0  0  0
   32.8997   10.0691    6.1279 C   0  0  0  0  0  0  0  0  0  0  0  0
   31.2743    7.5639    7.1981 H   0  0  0  0  0  0  0  0  0  0  0  0
   33.0602    7.6794    7.1148 H   0  0  0  0  0  0  0  0  0  0  0  0
   32.1761    8.0157    8.6079 H   0  0  0  0  0  0  0  0  0  0  0  0
   30.5299    9.7967    8.5808 H   0  0  0  0  0  0  0  0  0  0  0  0
   29.6287   11.9084    9.0056 H   0  0  0  0  0  0  0  0  0  0  0  0
   28.0250   13.3404    9.1288 H   0  0  0  0  0  0  0  0  0  0  0  0
   27.1964   13.5542    7.5693 H   0  0  0  0  0  0  0  0  0  0  0  0
   31.7610   13.2386    6.3974 H   0  0  0  0  0  0  0  0  0  0  0  0
   34.2126   11.3693    4.3112 H   0  0  0  0  0  0  0  0  0  0  0  0
   35.5249   14.0299    3.6084 H   0  0  0  0  0  0  0  0  0  0  0  0
   32.7227   14.3597    2.4320 H   0  0  0  0  0  0  0  0  0  0  0  0
   33.9785   15.5923    2.6136 H   0  0  0  0  0  0  0  0  0  0  0  0
   33.6571   14.4129    0.1997 H   0  0  0  0  0  0  0  0  0  0  0  0
   35.2976   14.6066    0.8483 H   0  0  0  0  0  0  0  0  0  0  0  0
   35.2526   12.2343    0.5187 H   0  0  0  0  0  0  0  0  0  0  0  0
   33.5431   12.1216    0.9917 H   0  0  0  0  0  0  0  0  0  0  0  0
   33.6057    9.4402    5.5929 H   0  0  0  0  0  0  0  0  0  0  0  0
  1  2  1  0
  2  3  2  0
  3  4  1  0
  4  5  1  0
  5  6  1  0
  6  7  2  0
  6  8  1  0
  8  9  1  0
  9 10  3  0
  4 11  2  0
 11 12  1  0
 12 13  1  0
 13 14  1  0
 14 15  2  0
 14 16  1  0
 16 17  1  0
 17 18  1  0
 18 19  1  0
 19 20  1  0
 12 21  2  0
 21  2  1  0
 20 16  1  0
  1 22  1  0
  1 23  1  0
  1 24  1  0
  3 25  1  0
  5 26  1  0
  8 27  1  0
  8 28  1  0
 11 29  1  0
 13 30  1  0
 16 31  1  0
 17 32  1  0
 17 33  1  0
 18 34  1  0
 18 35  1  0
 19 36  1  0
 19 37  1  0
 21 38  1  0
M  END
