LIG
     RDKit          3D

 34 34  0  0  0  0  0  0  0  0999 V2000
   -4.8521    0.3605    0.1648 C   0  0  0  0  0  0  0  0  0  0  0  0
   -3.6279    0.2984   -0.6191 N   0  0  0  0  0  0  0  0  0  0  0  0
   -3.6819    0.9148   -1.9357 C   0  0  0  0  0  0  0  0  0  0  0  0
   -2.3765    0.0157   -0.0792 C   0  0  0  0  0  0  0  0  0  0  0  0
   -1.3312    0.1578   -0.7211 O   0  0  0  0  0  0  0  0  0  0  0  0
   -2.3273   -0.5139    1.3652 C   0  0  0  0  0  0  0  0  0  0  0  0
   -1.0069   -0.7056    1.8593 O   0  0  0  0  0  0  0  0  0  0  0  0
   -0.3716   -1.8671    1.3318 C   0  0  0  0  0  0  0  0  0  0  0  0
    1.1006   -1.6060    0.9971 C   0  0  0  0  0  0  0  0  0  0  0  0
    1.9782   -2.3854    1.3618 O   0  0  0  0  0  0  0  0  0  0  0  0
    1.2802   -0.4705    0.2287 N   0  0  0  0  0  0  0  0  0  0  0  0
    2.4924    0.0735   -0.2469 C   0  0  0  0  0  0  0  0  0  0  0  0
    3.7500   -0.4778    0.0094 C   0  0  0  0  0  0  0  0  0  0  0  0
    4.8934    0.1363   -0.5067 C   0  0  0  0  0  0  0  0  0  0  0  0
    6.1356   -0.3794   -0.2747 O   0  0  0  0  0  0  0  0  0  0  0  0
    4.8103    1.2936   -1.2738 C   0  0  0  0  0  0  0  0  0  0  0  0
    3.5623    1.8528   -1.5316 C   0  0  0  0  0  0  0  0  0  0  0  0
    2.4199    1.2426   -1.0186 C   0  0  0  0  0  0  0  0  0  0  0  0
    1.2267    1.8024   -1.2723 F   0  0  0  0  0  0  0  0  0  0  0  0
   -4.9824    1.3853    0.5249 H   0  0  0  0  0  0  0  0  0  0  0  0
   -4.8228   -0.3166    1.0200 H   0  0  0  0  0  0  0  0  0  0  0  0
   -5.7010    0.0810   -0.4661 H   0  0  0  0  0  0  0  0  0  0  0  0
   -2.7804    0.7073   -2.5186 H   0  0  0  0  0  0  0  0  0  0  0  0
   -4.5467    0.5249   -2.4806 H   0  0  0  0  0  0  0  0  0  0  0  0
   -3.7826    1.9971   -1.8107 H   0  0  0  0  0  0  0  0  0  0  0  0
   -2.7931    0.2350    2.0136 H   0  0  0  0  0  0  0  0  0  0  0  0
   -2.8912   -1.4502    1.4405 H   0  0  0  0  0  0  0  0  0  0  0  0
   -0.8594   -2.2432    0.4247 H   0  0  0  0  0  0  0  0  0  0  0  0
   -0.4201   -2.6486    2.0972 H   0  0  0  0  0  0  0  0  0  0  0  0
    0.4287    0.0301   -0.0480 H   0  0  0  0  0  0  0  0  0  0  0  0
    3.8550   -1.3767    0.6046 H   0  0  0  0  0  0  0  0  0  0  0  0
    6.0395   -1.1788    0.2711 H   0  0  0  0  0  0  0  0  0  0  0  0
    5.7128    1.7546   -1.6647 H   0  0  0  0  0  0  0  0  0  0  0  0
    3.4697    2.7565   -2.1245 H   0  0  0  0  0  0  0  0  0  0  0  0
  1  2  1  0
  2  3  1  0
  2  4  1  0
  4  5  2  0
  4  6  1  0
  6  7  1  0
  7  8  1  0
  8  9  1  0
  9 10  2  0
  9 11  1  0
 11 12  1  0
 12 13  2  0
 13 14  1  0
 14 15  1  0
 14 16  2  0
 16 17  1  0
 17 18  2  0
 18 19  1  0
 18 12  1  0
  1 20  1  0
  1 21  1  0
  1 22  1  0
  3 23  1  0
  3 24  1  0
  3 25  1  0
  6 26  1  0
  6 27  1  0
  8 28  1  0
  8 29  1  0
 11 30  1  0
 13 31  1  0
 15 32  1  0
 16 33  1  0
 17 34  1  0
M  END
