LIG
     RDKit          3D

 34 34  0  0  0  0  0  0  0  0999 V2000
   34.5451   20.0709    6.8836 C   0  0  0  0  0  0  0  0  0  0  0  0
   35.3201   18.9139    6.4625 N   0  0  0  0  0  0  0  0  0  0  0  0
   36.4276   19.1832    5.5576 C   0  0  0  0  0  0  0  0  0  0  0  0
   34.8127   17.6437    6.7215 C   0  0  0  0  0  0  0  0  0  0  0  0
   33.7989   17.4731    7.4056 O   0  0  0  0  0  0  0  0  0  0  0  0
   35.6025   16.4329    6.1680 C   0  0  0  0  0  0  0  0  0  0  0  0
   35.0470   15.1300    6.2680 O   0  0  0  0  0  0  0  0  0  0  0  0
   34.6680   14.7180    7.5670 C   0  0  0  0  0  0  0  0  0  0  0  0
   34.4250   13.2280    7.6390 C   0  0  0  0  0  0  0  0  0  0  0  0
   34.9120   12.5690    8.5560 O   0  0  0  0  0  0  0  0  0  0  0  0
   33.6520   12.7090    6.6590 N   0  0  0  0  0  0  0  0  0  0  0  0
   32.7080   11.6650    6.8730 C   0  0  0  0  0  0  0  0  0  0  0  0
   31.5450   11.9340    7.6020 C   0  0  0  0  0  0  0  0  0  0  0  0
   30.7220   10.8640    7.9390 C   0  0  0  0  0  0  0  0  0  0  0  0
   29.4280   11.6110    9.1450 O   0  0  0  0  0  0  0  0  0  0  0  0
   31.0170    9.5590    7.5720 C   0  0  0  0  0  0  0  0  0  0  0  0
   32.1560    9.3390    6.8090 C   0  0  0  0  0  0  0  0  0  0  0  0
   33.0110   10.3720    6.4380 C   0  0  0  0  0  0  0  0  0  0  0  0
   34.1980   10.0910    5.5530 F   0  0  0  0  0  0  0  0  0  0  0  0
   34.0316   20.4831    6.0099 H   0  0  0  0  0  0  0  0  0  0  0  0
   33.8019   19.8139    7.6429 H   0  0  0  0  0  0  0  0  0  0  0  0
   35.2221   20.8227    7.3000 H   0  0  0  0  0  0  0  0  0  0  0  0
   36.9764   20.0625    5.9077 H   0  0  0  0  0  0  0  0  0  0  0  0
   37.1245   18.3454    5.5046 H   0  0  0  0  0  0  0  0  0  0  0  0
   36.0213   19.3767    4.5607 H   0  0  0  0  0  0  0  0  0  0  0  0
   35.7480   16.6028    5.0959 H   0  0  0  0  0  0  0  0  0  0  0  0
   36.5918   16.4249    6.6395 H   0  0  0  0  0  0  0  0  0  0  0  0
   33.7417   15.2051    7.7969 H   0  0  0  0  0  0  0  0  0  0  0  0
   35.3984   15.0342    8.2757 H   0  0  0  0  0  0  0  0  0  0  0  0
   33.6409   13.1268    5.7523 H   0  0  0  0  0  0  0  0  0  0  0  0
   31.2862   12.9306    7.9037 H   0  0  0  0  0  0  0  0  0  0  0  0
   29.6455   12.4725    8.8969 H   0  0  0  0  0  0  0  0  0  0  0  0
   30.3808    8.7432    7.8735 H   0  0  0  0  0  0  0  0  0  0  0  0
   32.4003    8.3115    6.4812 H   0  0  0  0  0  0  0  0  0  0  0  0
  1  2  1  0
  2  3  1  0
  2  4  1  0
  4  5  2  0
  4  6  1  0
  6  7  1  0
  7  8  1  0
  8  9  1  0
  9 10  2  0
  9 11  1  0
 11 12  1  0
 12 13  4  0
 13 14  4  0
 14 15  1  0
 14 16  4  0
 16 17  4  0
 17 18  4  0
 18 19  1  0
 18 12  4  0
  1 20  1  0
  1 21  1  0
  1 22  1  0
  3 23  1  0
  3 24  1  0
  3 25  1  0
  6 26  1  0
  6 27  1  0
  8 28  1  0
  8 29  1  0
 11 30  1  0
 13 31  1  0
 15 32  1  0
 16 33  1  0
 17 34  1  0
M  END
