LIG
     RDKit          3D

 48 49  0  0  0  0  0  0  0  0999 V2000
   31.6023    8.1352    8.0668 C   0  0  0  0  0  0  0  0  0  0  0  0
   31.4885    9.5587    7.7092 C   0  0  0  0  0  0  0  0  0  0  0  0
   30.5166   10.3228    8.3408 C   0  0  0  0  0  0  0  0  0  0  0  0
   30.2982   11.6325    7.9601 C   0  0  0  0  0  0  0  0  0  0  0  0
   29.2445   12.2666    8.5427 O   0  0  0  0  0  0  0  0  0  0  0  0
   29.3426   13.6598    8.7363 C   0  0  0  0  0  0  0  0  0  0  0  0
   30.4192   14.1967    9.7033 C   0  0  0  0  0  0  0  0  0  0  0  0
   31.6105   13.9104    9.6068 O   0  0  0  0  0  0  0  0  0  0  0  0
   29.9918   15.1331   10.6559 N   0  0  0  0  0  0  0  0  0  0  0  0
   28.9349   14.6994   11.5376 C   0  0  0  0  0  0  0  0  0  0  0  0
   31.0570   15.8689   11.3161 C   0  0  0  0  0  0  0  0  0  0  0  0
   31.0728   12.1691    6.9478 C   0  0  0  0  0  0  0  0  0  0  0  0
   32.0879   11.4174    6.3489 C   0  0  0  0  0  0  0  0  0  0  0  0
   32.8935   11.8203    5.3269 O   0  0  0  0  0  0  0  0  0  0  0  0
   32.8191   13.1794    4.9361 C   0  0  0  0  0  0  0  0  0  0  0  0
   33.5461   13.9943    5.9778 C   0  0  0  0  0  0  0  0  0  0  0  0
   33.1954   13.9438    7.1594 O   0  0  0  0  0  0  0  0  0  0  0  0
   34.6199   14.7605    5.5989 N   0  0  0  0  0  0  0  0  0  0  0  0
   35.6085   14.9296    6.6521 C   0  0  0  0  0  0  0  0  0  0  0  0
   36.6223   13.7934    6.4898 C   0  0  0  0  0  0  0  0  0  0  0  0
   37.3032   13.9490    5.2262 O   0  0  0  0  0  0  0  0  0  0  0  0
   36.3643   13.8162    4.1405 C   0  0  0  0  0  0  0  0  0  0  0  0
   35.2255   14.8354    4.2637 C   0  0  0  0  0  0  0  0  0  0  0  0
   32.2999   10.1104    6.7323 C   0  0  0  0  0  0  0  0  0  0  0  0
   32.2799    7.6442    7.3765 H   0  0  0  0  0  0  0  0  0  0  0  0
   31.9562    8.0096    9.0867 H   0  0  0  0  0  0  0  0  0  0  0  0
   30.6134    7.6803    7.9908 H   0  0  0  0  0  0  0  0  0  0  0  0
   29.9104    9.8677    9.1145 H   0  0  0  0  0  0  0  0  0  0  0  0
   28.3530   13.9840    9.0655 H   0  0  0  0  0  0  0  0  0  0  0  0
   29.4664   14.1869    7.7826 H   0  0  0  0  0  0  0  0  0  0  0  0
   28.7340   15.4663   12.2848 H   0  0  0  0  0  0  0  0  0  0  0  0
   28.0202   14.4702   10.9924 H   0  0  0  0  0  0  0  0  0  0  0  0
   29.2715   13.8138   12.0697 H   0  0  0  0  0  0  0  0  0  0  0  0
   31.5065   15.2438   12.0786 H   0  0  0  0  0  0  0  0  0  0  0  0
   30.6611   16.7711   11.7860 H   0  0  0  0  0  0  0  0  0  0  0  0
   31.8345   16.1591   10.6076 H   0  0  0  0  0  0  0  0  0  0  0  0
   30.8707   13.1757    6.6188 H   0  0  0  0  0  0  0  0  0  0  0  0
   33.2921   13.2232    3.9575 H   0  0  0  0  0  0  0  0  0  0  0  0
   31.7978   13.5442    4.7868 H   0  0  0  0  0  0  0  0  0  0  0  0
   36.0774   15.8937    6.4799 H   0  0  0  0  0  0  0  0  0  0  0  0
   35.1745   14.9202    7.6555 H   0  0  0  0  0  0  0  0  0  0  0  0
   37.3691   13.7780    7.2862 H   0  0  0  0  0  0  0  0  0  0  0  0
   36.1303   12.8174    6.4902 H   0  0  0  0  0  0  0  0  0  0  0  0
   36.9110   13.9728    3.2056 H   0  0  0  0  0  0  0  0  0  0  0  0
   35.9776   12.7903    4.1353 H   0  0  0  0  0  0  0  0  0  0  0  0
   34.4836   14.7175    3.4724 H   0  0  0  0  0  0  0  0  0  0  0  0
   35.6537   15.8342    4.1485 H   0  0  0  0  0  0  0  0  0  0  0  0
   33.0654    9.5152    6.2416 H   0  0  0  0  0  0  0  0  0  0  0  0
  1  2  1  0
  2  3  2  0
  3  4  1  0
  4  5  1  0
  5  6  1  0
  6  7  1  0
  7  8  2  0
  7  9  1  0
  9 10  1  0
  9 11  1  0
  4 12  2  0
 12 13  1  0
 13 14  1  0
 14 15  1  0
 15 16  1  0
 16 17  2  0
 16 18  1  0
 18 19  1  0
 19 20  1  0
 20 21  1  0
 21 22  1  0
 22 23  1  0
 13 24  2  0
 24  2  1  0
 23 18  1  0
  1 25  1  0
  1 26  1  0
  1 27  1  0
  3 28  1  0
  6 29  1  0
  6 30  1  0
 10 31  1  0
 10 32  1  0
 10 33  1  0
 11 34  1  0
 11 35  1  0
 11 36  1  0
 12 37  1  0
 15 38  1  0
 15 39  1  0
 19 40  1  0
 19 41  1  0
 20 42  1  0
 20 43  1  0
 22 44  1  0
 22 45  1  0
 23 46  1  0
 23 47  1  0
 24 48  1  0
M  END
