LIG
     RDKit          3D

 37 37  0  0  0  0  0  0  0  0999 V2000
   34.6871    9.3239    4.2672 C   0  0  0  0  0  0  0  0  0  0  0  0
   34.7021   10.7652    4.6713 C   0  0  0  0  0  0  0  0  0  0  0  0
   35.6117   11.5049    4.2805 O   0  0  0  0  0  0  0  0  0  0  0  0
   33.7151   11.3114    5.4304 N   0  0  0  0  0  0  0  0  0  0  0  0
   32.6714   10.8140    6.2425 C   0  0  0  0  0  0  0  0  0  0  0  0
   32.5188    9.4647    6.5357 C   0  0  0  0  0  0  0  0  0  0  0  0
   31.5768    9.0490    7.4751 C   0  0  0  0  0  0  0  0  0  0  0  0
   30.7395    9.9671    8.0940 C   0  0  0  0  0  0  0  0  0  0  0  0
   30.7899   11.3157    7.7480 C   0  0  0  0  0  0  0  0  0  0  0  0
   29.8712   12.1573    8.4100 N   0  0  0  0  0  0  0  0  0  0  0  0
   28.9947   13.0916    7.9310 C   0  0  0  0  0  0  0  0  0  0  0  0
   28.8816   13.3505    6.4546 C   0  0  0  0  0  0  0  0  0  0  0  0
   28.2443   13.6860    8.7118 O   0  0  0  0  0  0  0  0  0  0  0  0
   31.8010   11.7587    6.8674 C   0  0  0  0  0  0  0  0  0  0  0  0
   32.0088   13.2353    6.6640 C   0  0  0  0  0  0  0  0  0  0  0  0
   33.4084   13.6716    6.7356 N   0  0  0  0  0  0  0  0  0  0  0  0
   33.9762   13.8719    8.3057 S   0  0  0  0  0  0  0  0  0  0  0  0
   35.6508   14.2290    7.8677 C   0  0  0  0  0  0  0  0  0  0  0  0
   33.2725   14.9996    8.8571 O   0  0  0  0  0  0  0  0  0  0  0  0
   33.8604   12.6152    8.9885 O   0  0  0  0  0  0  0  0  0  0  0  0
   35.3419    9.1916    3.3996 H   0  0  0  0  0  0  0  0  0  0  0  0
   33.6894    9.0127    3.9635 H   0  0  0  0  0  0  0  0  0  0  0  0
   35.0693    8.7005    5.0768 H   0  0  0  0  0  0  0  0  0  0  0  0
   33.9073   12.3009    5.5720 H   0  0  0  0  0  0  0  0  0  0  0  0
   33.1619    8.6972    6.1282 H   0  0  0  0  0  0  0  0  0  0  0  0
   31.4949    7.9955    7.7333 H   0  0  0  0  0  0  0  0  0  0  0  0
   30.0184    9.5956    8.8160 H   0  0  0  0  0  0  0  0  0  0  0  0
   29.6171   11.8841    9.3652 H   0  0  0  0  0  0  0  0  0  0  0  0
   29.3705   12.5872    5.8535 H   0  0  0  0  0  0  0  0  0  0  0  0
   29.2909   14.3335    6.2180 H   0  0  0  0  0  0  0  0  0  0  0  0
   27.8206   13.3393    6.1839 H   0  0  0  0  0  0  0  0  0  0  0  0
   31.6369   13.4947    5.6651 H   0  0  0  0  0  0  0  0  0  0  0  0
   31.4342   13.8278    7.3767 H   0  0  0  0  0  0  0  0  0  0  0  0
   33.6134   14.5021    6.1743 H   0  0  0  0  0  0  0  0  0  0  0  0
   36.2693   14.2350    8.7618 H   0  0  0  0  0  0  0  0  0  0  0  0
   35.6732   15.1993    7.3722 H   0  0  0  0  0  0  0  0  0  0  0  0
   36.0210   13.4573    7.1905 H   0  0  0  0  0  0  0  0  0  0  0  0
  1  2  1  0
  2  3  2  0
  2  4  1  0
  4  5  1  0
  5  6  2  0
  6  7  1  0
  7  8  2  0
  8  9  1  0
  9 10  1  0
 10 11  1  0
 11 12  1  0
 11 13  2  0
  9 14  2  0
 14 15  1  0
 15 16  1  0
 16 17  1  0
 17 18  1  0
 17 19  2  0
 17 20  2  0
 14  5  1  0
  1 21  1  0
  1 22  1  0
  1 23  1  0
  4 24  1  0
  6 25  1  0
  7 26  1  0
  8 27  1  0
 10 28  1  0
 12 29  1  0
 12 30  1  0
 12 31  1  0
 15 32  1  0
 15 33  1  0
 16 34  1  0
 18 35  1  0
 18 36  1  0
 18 37  1  0
M  END
