LIG
     RDKit          3D

 45 47  0  0  0  0  0  0  0  0999 V2000
   33.9407    9.1034    5.5271 C   0  0  0  0  0  0  0  0  0  0  0  0
   33.0040   10.1586    6.0147 C   0  0  0  0  0  0  0  0  0  0  0  0
   32.0300    9.8260    6.9823 C   0  0  0  0  0  0  0  0  0  0  0  0
   31.2071   10.8072    7.5368 C   0  0  0  0  0  0  0  0  0  0  0  0
   31.3367   12.1058    7.0821 C   0  0  0  0  0  0  0  0  0  0  0  0
   30.6900   13.2297    7.4535 O   0  0  0  0  0  0  0  0  0  0  0  0
   30.0021   13.1757    8.6706 C   0  0  0  0  0  0  0  0  0  0  0  0
   28.5506   12.8620    8.3633 C   0  0  0  0  0  0  0  0  0  0  0  0
   28.0805   14.1640    7.7840 C   0  0  0  0  0  0  0  0  0  0  0  0
   28.7327   15.1018    8.6464 N   0  0  0  0  0  0  0  0  0  0  0  0
   28.5264   16.4777    8.4311 C   0  0  0  0  0  0  0  0  0  0  0  0
   29.9384   14.6109    9.1327 C   0  0  0  0  0  0  0  0  0  0  0  0
   30.7930   15.2469    9.7314 O   0  0  0  0  0  0  0  0  0  0  0  0
   32.2232   12.4085    6.0800 C   0  0  0  0  0  0  0  0  0  0  0  0
   33.0878   11.4745    5.5514 C   0  0  0  0  0  0  0  0  0  0  0  0
   33.9671   11.8908    4.5393 N   0  0  0  0  0  0  0  0  0  0  0  0
   34.2793   13.2218    4.2848 C   0  0  0  0  0  0  0  0  0  0  0  0
   34.0268   14.1813    5.0126 O   0  0  0  0  0  0  0  0  0  0  0  0
   34.9362   13.4418    2.9292 C   0  0  0  0  0  0  0  0  0  0  0  0
   34.0914   14.4134    2.1148 C   0  0  0  0  0  0  0  0  0  0  0  0
   34.4065   14.0016    0.7040 C   0  0  0  0  0  0  0  0  0  0  0  0
   34.5363   12.5021    0.8382 C   0  0  0  0  0  0  0  0  0  0  0  0
   35.0437   12.2370    2.1537 O   0  0  0  0  0  0  0  0  0  0  0  0
   33.5929    8.6772    4.5869 H   0  0  0  0  0  0  0  0  0  0  0  0
   34.9406    9.5137    5.3556 H   0  0  0  0  0  0  0  0  0  0  0  0
   34.0570    8.3294    6.2803 H   0  0  0  0  0  0  0  0  0  0  0  0
   31.9363    8.7984    7.3343 H   0  0  0  0  0  0  0  0  0  0  0  0
   30.4873   10.5214    8.2964 H   0  0  0  0  0  0  0  0  0  0  0  0
   30.5046   12.5701    9.4037 H   0  0  0  0  0  0  0  0  0  0  0  0
   28.4044   12.0425    7.6564 H   0  0  0  0  0  0  0  0  0  0  0  0
   28.0152   12.6776    9.2951 H   0  0  0  0  0  0  0  0  0  0  0  0
   27.0048   14.2992    7.8256 H   0  0  0  0  0  0  0  0  0  0  0  0
   28.4250   14.3082    6.7532 H   0  0  0  0  0  0  0  0  0  0  0  0
   27.5933   16.6971    8.9381 H   0  0  0  0  0  0  0  0  0  0  0  0
   28.5169   16.6634    7.3607 H   0  0  0  0  0  0  0  0  0  0  0  0
   29.3093   17.0887    8.8430 H   0  0  0  0  0  0  0  0  0  0  0  0
   32.1949   13.4308    5.7221 H   0  0  0  0  0  0  0  0  0  0  0  0
   34.4712   11.2060    3.9858 H   0  0  0  0  0  0  0  0  0  0  0  0
   35.9505   13.8235    3.0900 H   0  0  0  0  0  0  0  0  0  0  0  0
   33.0210   14.2746    2.3134 H   0  0  0  0  0  0  0  0  0  0  0  0
   34.3352   15.4595    2.3234 H   0  0  0  0  0  0  0  0  0  0  0  0
   33.6487   14.3026   -0.0240 H   0  0  0  0  0  0  0  0  0  0  0  0
   35.3669   14.4333    0.3981 H   0  0  0  0  0  0  0  0  0  0  0  0
   33.5602   12.0120    0.7544 H   0  0  0  0  0  0  0  0  0  0  0  0
   35.2074   12.0693    0.0910 H   0  0  0  0  0  0  0  0  0  0  0  0
  1  2  1  0
  2  3  2  0
  3  4  1  0
  4  5  2  0
  5  6  1  0
  6  7  1  0
  7  8  1  0
  8  9  1  0
  9 10  1  0
 10 11  1  0
 10 12  1  0
 12 13  2  0
  5 14  1  0
 14 15  2  0
 15 16  1  0
 16 17  1  0
 17 18  2  0
 17 19  1  0
 19 20  1  0
 20 21  1  0
 21 22  1  0
 22 23  1  0
 15  2  1  0
 23 19  1  0
 12  7  1  0
  1 24  1  0
  1 25  1  0
  1 26  1  0
  3 27  1  0
  4 28  1  0
  7 29  1  0
  8 30  1  0
  8 31  1  0
  9 32  1  0
  9 33  1  0
 11 34  1  0
 11 35  1  0
 11 36  1  0
 14 37  1  0
 16 38  1  0
 19 39  1  0
 20 40  1  0
 20 41  1  0
 21 42  1  0
 21 43  1  0
 22 44  1  0
 22 45  1  0
M  END
