LIG
     RDKit          3D

 52 54  0  0  0  0  0  0  0  0999 V2000
   30.4508    8.3832    9.0528 C   0  0  0  0  0  0  0  0  0  0  0  0
   31.0627    9.3570    8.1040 C   0  0  0  0  0  0  0  0  0  0  0  0
   32.0918    8.9802    7.2568 C   0  0  0  0  0  0  0  0  0  0  0  0
   32.7103    9.9119    6.4237 C   0  0  0  0  0  0  0  0  0  0  0  0
   33.8873    9.4994    5.5815 C   0  0  0  0  0  0  0  0  0  0  0  0
   32.2161   11.2262    6.3685 C   0  0  0  0  0  0  0  0  0  0  0  0
   32.7972   11.9375    5.3584 O   0  0  0  0  0  0  0  0  0  0  0  0
   32.5607   13.3184    5.2208 C   0  0  0  0  0  0  0  0  0  0  0  0
   33.4752   13.9803    6.2155 C   0  0  0  0  0  0  0  0  0  0  0  0
   33.2785   13.8378    7.4265 O   0  0  0  0  0  0  0  0  0  0  0  0
   34.5443   14.7111    5.7447 N   0  0  0  0  0  0  0  0  0  0  0  0
   35.6124   14.8931    6.7135 C   0  0  0  0  0  0  0  0  0  0  0  0
   36.6263   13.7707    6.4771 C   0  0  0  0  0  0  0  0  0  0  0  0
   37.2041   13.9234    5.1637 O   0  0  0  0  0  0  0  0  0  0  0  0
   36.1821   13.7661    4.1610 C   0  0  0  0  0  0  0  0  0  0  0  0
   35.0476   14.7769    4.3636 C   0  0  0  0  0  0  0  0  0  0  0  0
   31.1900   11.6336    7.2341 C   0  0  0  0  0  0  0  0  0  0  0  0
   30.7549   12.9401    7.2197 O   0  0  0  0  0  0  0  0  0  0  0  0
   30.1161   13.4003    8.3749 C   0  0  0  0  0  0  0  0  0  0  0  0
   28.6721   13.7576    8.0594 C   0  0  0  0  0  0  0  0  0  0  0  0
   28.2170   14.3396    9.3731 C   0  0  0  0  0  0  0  0  0  0  0  0
   29.3614   15.0274    9.9008 N   0  0  0  0  0  0  0  0  0  0  0  0
   29.5428   15.1158   11.3297 C   0  0  0  0  0  0  0  0  0  0  0  0
   30.5239   14.6061    9.2240 C   0  0  0  0  0  0  0  0  0  0  0  0
   31.6278   15.0659    9.4555 O   0  0  0  0  0  0  0  0  0  0  0  0
   30.6031   10.6650    8.0542 C   0  0  0  0  0  0  0  0  0  0  0  0
   29.9022    8.8911    9.8485 H   0  0  0  0  0  0  0  0  0  0  0  0
   29.7607    7.7204    8.5263 H   0  0  0  0  0  0  0  0  0  0  0  0
   31.2327    7.8088    9.5486 H   0  0  0  0  0  0  0  0  0  0  0  0
   32.4363    7.9527    7.2734 H   0  0  0  0  0  0  0  0  0  0  0  0
   34.3496    8.5871    5.9620 H   0  0  0  0  0  0  0  0  0  0  0  0
   34.6625   10.2724    5.5770 H   0  0  0  0  0  0  0  0  0  0  0  0
   33.5700    9.3163    4.5516 H   0  0  0  0  0  0  0  0  0  0  0  0
   32.8011   13.5636    4.1899 H   0  0  0  0  0  0  0  0  0  0  0  0
   31.5209   13.6308    5.3180 H   0  0  0  0  0  0  0  0  0  0  0  0
   35.2590   14.8855    7.7480 H   0  0  0  0  0  0  0  0  0  0  0  0
   36.0548   15.8624    6.4999 H   0  0  0  0  0  0  0  0  0  0  0  0
   37.4346   13.7693    7.2108 H   0  0  0  0  0  0  0  0  0  0  0  0
   36.1485   12.7898    6.5206 H   0  0  0  0  0  0  0  0  0  0  0  0
   36.6493   13.9150    3.1827 H   0  0  0  0  0  0  0  0  0  0  0  0
   35.8048   12.7372    4.1997 H   0  0  0  0  0  0  0  0  0  0  0  0
   34.2628   14.6451    3.6204 H   0  0  0  0  0  0  0  0  0  0  0  0
   35.4592   15.7764    4.2088 H   0  0  0  0  0  0  0  0  0  0  0  0
   30.1436   12.6523    9.1577 H   0  0  0  0  0  0  0  0  0  0  0  0
   28.6299   14.5044    7.2562 H   0  0  0  0  0  0  0  0  0  0  0  0
   28.0739   12.8985    7.7425 H   0  0  0  0  0  0  0  0  0  0  0  0
   27.3922   15.0463    9.2639 H   0  0  0  0  0  0  0  0  0  0  0  0
   27.9433   13.5434   10.0701 H   0  0  0  0  0  0  0  0  0  0  0  0
   28.5982   15.3008   11.8353 H   0  0  0  0  0  0  0  0  0  0  0  0
   30.2786   15.8896   11.5677 H   0  0  0  0  0  0  0  0  0  0  0  0
   29.9332   14.1657   11.7003 H   0  0  0  0  0  0  0  0  0  0  0  0
   29.7399   10.8841    8.6645 H   0  0  0  0  0  0  0  0  0  0  0  0
  1  2  1  0
  2  3  2  0
  3  4  1  0
  4  5  1  0
  4  6  2  0
  6  7  1  0
  7  8  1  0
  8  9  1  0
  9 10  2  0
  9 11  1  0
 11 12  1  0
 12 13  1  0
 13 14  1  0
 14 15  1  0
 15 16  1  0
  6 17  1  0
 17 18  1  0
 18 19  1  0
 19 20  1  0
 20 21  1  0
 21 22  1  0
 22 23  1  0
 22 24  1  0
 24 25  2  0
 17 26  2  0
 26  2  1  0
 16 11  1  0
 24 19  1  0
  1 27  1  0
  1 28  1  0
  1 29  1  0
  3 30  1  0
  5 31  1  0
  5 32  1  0
  5 33  1  0
  8 34  1  0
  8 35  1  0
 12 36  1  0
 12 37  1  0
 13 38  1  0
 13 39  1  0
 15 40  1  0
 15 41  1  0
 16 42  1  0
 16 43  1  0
 19 44  1  0
 20 45  1  0
 20 46  1  0
 21 47  1  0
 21 48  1  0
 23 49  1  0
 23 50  1  0
 23 51  1  0
 26 52  1  0
M  END
