LIG
     RDKit          3D

 41 41  0  0  0  0  0  0  0  0999 V2000
   29.2455   14.4901    8.7568 C   0  0  0  0  0  0  0  0  0  0  0  0
   29.6517   13.3360    7.8839 C   0  0  0  0  0  0  0  0  0  0  0  0
   28.8285   12.7816    7.1576 O   0  0  0  0  0  0  0  0  0  0  0  0
   30.9969   13.0229    7.9434 N   0  0  0  0  0  0  0  0  0  0  0  0
   31.5233   11.8049    7.4627 C   0  0  0  0  0  0  0  0  0  0  0  0
   30.8440   10.6198    7.7407 C   0  0  0  0  0  0  0  0  0  0  0  0
   31.3572    9.3998    7.3154 C   0  0  0  0  0  0  0  0  0  0  0  0
   32.4889    9.3624    6.5032 C   0  0  0  0  0  0  0  0  0  0  0  0
   33.1628   10.5349    6.1834 C   0  0  0  0  0  0  0  0  0  0  0  0
   34.3249   10.5624    5.4525 O   0  0  0  0  0  0  0  0  0  0  0  0
   34.3952    9.7051    4.3234 C   0  0  0  0  0  0  0  0  0  0  0  0
   35.0212    8.3193    4.5160 C   0  0  0  0  0  0  0  0  0  0  0  0
   35.4831    7.9753    5.5982 O   0  0  0  0  0  0  0  0  0  0  0  0
   35.0774    7.4772    3.4100 N   0  0  0  0  0  0  0  0  0  0  0  0
   35.6277    6.1454    3.5945 C   0  0  0  0  0  0  0  0  0  0  0  0
   34.4968    7.8026    2.1258 C   0  0  0  0  0  0  0  0  0  0  0  0
   32.7390   11.7471    6.7574 C   0  0  0  0  0  0  0  0  0  0  0  0
   33.5861   12.8680    6.5868 N   0  0  0  0  0  0  0  0  0  0  0  0
   34.1242   13.5055    7.6950 C   0  0  0  0  0  0  0  0  0  0  0  0
   33.7369   13.3489    8.8517 O   0  0  0  0  0  0  0  0  0  0  0  0
   35.2962   14.4142    7.3366 C   0  0  0  0  0  0  0  0  0  0  0  0
   35.2448   14.9004    6.0021 O   0  0  0  0  0  0  0  0  0  0  0  0
   28.4134   14.1800    9.3948 H   0  0  0  0  0  0  0  0  0  0  0  0
   28.9341   15.3272    8.1265 H   0  0  0  0  0  0  0  0  0  0  0  0
   30.0681   14.8156    9.3997 H   0  0  0  0  0  0  0  0  0  0  0  0
   31.6693   13.7559    8.1298 H   0  0  0  0  0  0  0  0  0  0  0  0
   29.9391   10.6262    8.3424 H   0  0  0  0  0  0  0  0  0  0  0  0
   30.8613    8.4768    7.6124 H   0  0  0  0  0  0  0  0  0  0  0  0
   32.8786    8.3989    6.2056 H   0  0  0  0  0  0  0  0  0  0  0  0
   35.0396   10.2280    3.6065 H   0  0  0  0  0  0  0  0  0  0  0  0
   33.4211    9.6181    3.8494 H   0  0  0  0  0  0  0  0  0  0  0  0
   36.1909    6.0422    4.5255 H   0  0  0  0  0  0  0  0  0  0  0  0
   36.3011    5.9224    2.7616 H   0  0  0  0  0  0  0  0  0  0  0  0
   34.7993    5.4418    3.5928 H   0  0  0  0  0  0  0  0  0  0  0  0
   34.9224    8.7448    1.7688 H   0  0  0  0  0  0  0  0  0  0  0  0
   34.7131    7.0207    1.3925 H   0  0  0  0  0  0  0  0  0  0  0  0
   33.4172    7.9287    2.2290 H   0  0  0  0  0  0  0  0  0  0  0  0
   34.3023   12.7439    5.8713 H   0  0  0  0  0  0  0  0  0  0  0  0
   35.2940   15.2522    8.0307 H   0  0  0  0  0  0  0  0  0  0  0  0
   36.2226   13.8474    7.4633 H   0  0  0  0  0  0  0  0  0  0  0  0
   35.1839   15.8808    6.0348 H   0  0  0  0  0  0  0  0  0  0  0  0
  1  2  1  0
  2  3  2  0
  2  4  1  0
  4  5  1  0
  5  6  2  0
  6  7  1  0
  7  8  2  0
  8  9  1  0
  9 10  1  0
 10 11  1  0
 11 12  1  0
 12 13  2  0
 12 14  1  0
 14 15  1  0
 14 16  1  0
  9 17  2  0
 17 18  1  0
 18 19  1  0
 19 20  2  0
 19 21  1  0
 21 22  1  0
 17  5  1  0
  1 23  1  0
  1 24  1  0
  1 25  1  0
  4 26  1  0
  6 27  1  0
  7 28  1  0
  8 29  1  0
 11 30  1  0
 11 31  1  0
 15 32  1  0
 15 33  1  0
 15 34  1  0
 16 35  1  0
 16 36  1  0
 16 37  1  0
 18 38  1  0
 21 39  1  0
 21 40  1  0
 22 41  1  0
M  END
