LIG
     RDKit          3D

 31 31  0  0  0  0  0  0  0  0999 V2000
   34.3254    8.7668    5.1863 C   0  0  0  0  0  0  0  0  0  0  0  0
   33.2999    9.5539    5.9349 C   0  0  0  0  0  0  0  0  0  0  0  0
   33.3595   10.9357    5.8506 C   0  0  0  0  0  0  0  0  0  0  0  0
   32.5340   11.7218    6.6450 C   0  0  0  0  0  0  0  0  0  0  0  0
   32.9200   13.0804    6.7360 N   0  0  0  0  0  0  0  0  0  0  0  0
   33.7619   13.4116    7.8054 C   0  0  0  0  0  0  0  0  0  0  0  0
   33.7113   12.9118    8.9286 O   0  0  0  0  0  0  0  0  0  0  0  0
   34.8073   14.4717    7.4297 C   0  0  0  0  0  0  0  0  0  0  0  0
   34.7090   14.8780    6.0665 O   0  0  0  0  0  0  0  0  0  0  0  0
   31.5329   11.1289    7.4346 C   0  0  0  0  0  0  0  0  0  0  0  0
   30.5317   11.8592    8.1006 N   0  0  0  0  0  0  0  0  0  0  0  0
   29.7812   12.7928    7.4051 C   0  0  0  0  0  0  0  0  0  0  0  0
   29.9542   13.1203    6.2325 O   0  0  0  0  0  0  0  0  0  0  0  0
   28.6157   13.3175    8.1907 C   0  0  0  0  0  0  0  0  0  0  0  0
   28.5748   14.7666    8.1303 C   0  0  0  0  0  0  0  0  0  0  0  0
   28.5016   15.9212    8.1595 N   0  0  0  0  0  0  0  0  0  0  0  0
   31.4680    9.7431    7.5324 C   0  0  0  0  0  0  0  0  0  0  0  0
   32.3515    8.9681    6.7889 C   0  0  0  0  0  0  0  0  0  0  0  0
   34.8894    8.1267    5.8624 H   0  0  0  0  0  0  0  0  0  0  0  0
   35.0676    9.4271    4.7208 H   0  0  0  0  0  0  0  0  0  0  0  0
   33.8845    8.1984    4.3693 H   0  0  0  0  0  0  0  0  0  0  0  0
   34.1401   11.4043    5.2541 H   0  0  0  0  0  0  0  0  0  0  0  0
   33.3515   13.4531    5.8881 H   0  0  0  0  0  0  0  0  0  0  0  0
   34.6443   15.3312    8.0789 H   0  0  0  0  0  0  0  0  0  0  0  0
   35.8054   14.0590    7.5970 H   0  0  0  0  0  0  0  0  0  0  0  0
   35.0064   15.8156    6.0199 H   0  0  0  0  0  0  0  0  0  0  0  0
   30.0576   11.3794    8.8632 H   0  0  0  0  0  0  0  0  0  0  0  0
   28.6614   13.0041    9.2340 H   0  0  0  0  0  0  0  0  0  0  0  0
   27.7089   12.8844    7.7575 H   0  0  0  0  0  0  0  0  0  0  0  0
   30.7314    9.2433    8.1562 H   0  0  0  0  0  0  0  0  0  0  0  0
   32.3125    7.8954    6.9200 H   0  0  0  0  0  0  0  0  0  0  0  0
  1  2  1  0
  2  3  2  0
  3  4  1  0
  4  5  1  0
  5  6  1  0
  6  7  2  0
  6  8  1  0
  8  9  1  0
  4 10  2  0
 10 11  1  0
 11 12  1  0
 12 13  2  0
 12 14  1  0
 14 15  1  0
 15 16  3  0
 10 17  1  0
 17 18  2  0
 18  2  1  0
  1 19  1  0
  1 20  1  0
  1 21  1  0
  3 22  1  0
  5 23  1  0
  8 24  1  0
  8 25  1  0
  9 26  1  0
 11 27  1  0
 14 28  1  0
 14 29  1  0
 17 30  1  0
 18 31  1  0
M  END
