LIG
     RDKit          3D

 34 34  0  0  0  0  0  0  0  0999 V2000
   39.8583   13.5240    5.4788 C   0  0  0  0  0  0  0  0  0  0  0  0
   38.7057   14.3250    5.1034 N   0  0  0  0  0  0  0  0  0  0  0  0
   38.6561   14.8002    3.7405 C   0  0  0  0  0  0  0  0  0  0  0  0
   37.5672   14.2104    5.8798 C   0  0  0  0  0  0  0  0  0  0  0  0
   37.6082   13.5873    6.9426 O   0  0  0  0  0  0  0  0  0  0  0  0
   36.3112   14.9846    5.4394 C   0  0  0  0  0  0  0  0  0  0  0  0
   35.0889   14.5361    5.9662 O   0  0  0  0  0  0  0  0  0  0  0  0
   34.9879   14.6059    7.3839 C   0  0  0  0  0  0  0  0  0  0  0  0
   34.1027   13.4608    7.8254 C   0  0  0  0  0  0  0  0  0  0  0  0
   33.7640   13.2936    8.9975 O   0  0  0  0  0  0  0  0  0  0  0  0
   33.7045   12.6379    6.7764 N   0  0  0  0  0  0  0  0  0  0  0  0
   32.6606   11.7321    6.9512 C   0  0  0  0  0  0  0  0  0  0  0  0
   31.5034   12.1727    7.5791 C   0  0  0  0  0  0  0  0  0  0  0  0
   30.5464   11.2554    7.9450 C   0  0  0  0  0  0  0  0  0  0  0  0
   29.4181   11.7664    8.4965 O   0  0  0  0  0  0  0  0  0  0  0  0
   30.7413    9.8951    7.7412 C   0  0  0  0  0  0  0  0  0  0  0  0
   31.8608    9.4696    7.0177 C   0  0  0  0  0  0  0  0  0  0  0  0
   32.7917   10.4008    6.5726 C   0  0  0  0  0  0  0  0  0  0  0  0
   33.8664    9.9948    5.8796 F   0  0  0  0  0  0  0  0  0  0  0  0
   39.7824   12.5508    4.9838 H   0  0  0  0  0  0  0  0  0  0  0  0
   40.7747   14.0267    5.1560 H   0  0  0  0  0  0  0  0  0  0  0  0
   39.9109   13.3644    6.5595 H   0  0  0  0  0  0  0  0  0  0  0  0
   38.0613   15.7142    3.6678 H   0  0  0  0  0  0  0  0  0  0  0  0
   39.6663   15.0322    3.3902 H   0  0  0  0  0  0  0  0  0  0  0  0
   38.2168   14.0239    3.1074 H   0  0  0  0  0  0  0  0  0  0  0  0
   36.4692   16.0300    5.6843 H   0  0  0  0  0  0  0  0  0  0  0  0
   36.1985   14.9017    4.3561 H   0  0  0  0  0  0  0  0  0  0  0  0
   35.9256   14.5395    7.9309 H   0  0  0  0  0  0  0  0  0  0  0  0
   34.5120   15.5434    7.6524 H   0  0  0  0  0  0  0  0  0  0  0  0
   34.4783   12.3868    6.1664 H   0  0  0  0  0  0  0  0  0  0  0  0
   31.3555   13.2219    7.8159 H   0  0  0  0  0  0  0  0  0  0  0  0
   29.4237   11.5081    9.4449 H   0  0  0  0  0  0  0  0  0  0  0  0
   30.0050    9.1658    8.0722 H   0  0  0  0  0  0  0  0  0  0  0  0
   32.0172    8.4143    6.8218 H   0  0  0  0  0  0  0  0  0  0  0  0
  1  2  1  0
  2  3  1  0
  2  4  1  0
  4  5  2  0
  4  6  1  0
  6  7  1  0
  7  8  1  0
  8  9  1  0
  9 10  2  0
  9 11  1  0
 11 12  1  0
 12 13  2  0
 13 14  1  0
 14 15  1  0
 14 16  2  0
 16 17  1  0
 17 18  2  0
 18 19  1  0
 18 12  1  0
  1 20  1  0
  1 21  1  0
  1 22  1  0
  3 23  1  0
  3 24  1  0
  3 25  1  0
  6 26  1  0
  6 27  1  0
  8 28  1  0
  8 29  1  0
 11 30  1  0
 13 31  1  0
 15 32  1  0
 16 33  1  0
 17 34  1  0
M  END
