LIG
     RDKit          3D

 52 54  0  0  0  0  0  0  0  0999 V2000
   30.4516    8.3830    9.0527 C   0  0  0  0  0  0  0  0  0  0  0  0
   31.0631    9.3568    8.1037 C   0  0  0  0  0  0  0  0  0  0  0  0
   32.0924    8.9803    7.2567 C   0  0  0  0  0  0  0  0  0  0  0  0
   32.7105    9.9121    6.4234 C   0  0  0  0  0  0  0  0  0  0  0  0
   33.8877    9.4996    5.5814 C   0  0  0  0  0  0  0  0  0  0  0  0
   32.2159   11.2261    6.3679 C   0  0  0  0  0  0  0  0  0  0  0  0
   32.7966   11.9376    5.3576 O   0  0  0  0  0  0  0  0  0  0  0  0
   32.5602   13.3186    5.2205 C   0  0  0  0  0  0  0  0  0  0  0  0
   33.4748   13.9800    6.2154 C   0  0  0  0  0  0  0  0  0  0  0  0
   33.2785   13.8368    7.4264 O   0  0  0  0  0  0  0  0  0  0  0  0
   34.5440   14.7110    5.7449 N   0  0  0  0  0  0  0  0  0  0  0  0
   35.6113   14.8937    6.7144 C   0  0  0  0  0  0  0  0  0  0  0  0
   36.6252   13.7711    6.4795 C   0  0  0  0  0  0  0  0  0  0  0  0
   37.2045   13.9235    5.1667 O   0  0  0  0  0  0  0  0  0  0  0  0
   36.1833   13.7657    4.1631 C   0  0  0  0  0  0  0  0  0  0  0  0
   35.0482   14.7761    4.3642 C   0  0  0  0  0  0  0  0  0  0  0  0
   31.1895   11.6333    7.2335 C   0  0  0  0  0  0  0  0  0  0  0  0
   30.7537   12.9394    7.2186 O   0  0  0  0  0  0  0  0  0  0  0  0
   30.1149   13.4002    8.3736 C   0  0  0  0  0  0  0  0  0  0  0  0
   28.6716   13.7601    8.0579 C   0  0  0  0  0  0  0  0  0  0  0  0
   28.2173   14.3417    9.3721 C   0  0  0  0  0  0  0  0  0  0  0  0
   29.3627   15.0275    9.9002 N   0  0  0  0  0  0  0  0  0  0  0  0
   29.5440   15.1165   11.3289 C   0  0  0  0  0  0  0  0  0  0  0  0
   30.5247   14.6046    9.2235 C   0  0  0  0  0  0  0  0  0  0  0  0
   31.6296   15.0616    9.4560 O   0  0  0  0  0  0  0  0  0  0  0  0
   30.6031   10.6646    8.0537 C   0  0  0  0  0  0  0  0  0  0  0  0
   31.2336    7.8086    9.5484 H   0  0  0  0  0  0  0  0  0  0  0  0
   29.9031    8.8908    9.8485 H   0  0  0  0  0  0  0  0  0  0  0  0
   29.7615    7.7201    8.5264 H   0  0  0  0  0  0  0  0  0  0  0  0
   32.4375    7.9529    7.2736 H   0  0  0  0  0  0  0  0  0  0  0  0
   33.5706    9.3164    4.5514 H   0  0  0  0  0  0  0  0  0  0  0  0
   34.6627   10.2727    5.5769 H   0  0  0  0  0  0  0  0  0  0  0  0
   34.3501    8.5873    5.9620 H   0  0  0  0  0  0  0  0  0  0  0  0
   31.5205   13.6310    5.3179 H   0  0  0  0  0  0  0  0  0  0  0  0
   32.8006   13.5642    4.1897 H   0  0  0  0  0  0  0  0  0  0  0  0
   35.2571   14.8869    7.7486 H   0  0  0  0  0  0  0  0  0  0  0  0
   36.0539   15.8628    6.5006 H   0  0  0  0  0  0  0  0  0  0  0  0
   37.4325   13.7696    7.2142 H   0  0  0  0  0  0  0  0  0  0  0  0
   36.1470   12.7903    6.5226 H   0  0  0  0  0  0  0  0  0  0  0  0
   35.8064   12.7366    4.2017 H   0  0  0  0  0  0  0  0  0  0  0  0
   36.6515   13.9145    3.1852 H   0  0  0  0  0  0  0  0  0  0  0  0
   34.2641   14.6434    3.6204 H   0  0  0  0  0  0  0  0  0  0  0  0
   35.4594   15.7758    4.2090 H   0  0  0  0  0  0  0  0  0  0  0  0
   30.1402   12.6516    9.1559 H   0  0  0  0  0  0  0  0  0  0  0  0
   28.6309   14.5076    7.2553 H   0  0  0  0  0  0  0  0  0  0  0  0
   28.0722   12.9022    7.7402 H   0  0  0  0  0  0  0  0  0  0  0  0
   27.9427   13.5453   10.0686 H   0  0  0  0  0  0  0  0  0  0  0  0
   27.3933   15.0494    9.2636 H   0  0  0  0  0  0  0  0  0  0  0  0
   29.9340   14.1664   11.7000 H   0  0  0  0  0  0  0  0  0  0  0  0
   28.5995   15.3019   11.8345 H   0  0  0  0  0  0  0  0  0  0  0  0
   30.2801   15.8900   11.5667 H   0  0  0  0  0  0  0  0  0  0  0  0
   29.7397   10.8833    8.6639 H   0  0  0  0  0  0  0  0  0  0  0  0
  1  2  1  0
  2  3  2  0
  3  4  1  0
  4  5  1  0
  4  6  2  0
  6  7  1  0
  7  8  1  0
  8  9  1  0
  9 10  2  0
  9 11  1  0
 11 12  1  0
 12 13  1  0
 13 14  1  0
 14 15  1  0
 15 16  1  0
  6 17  1  0
 17 18  1  0
 18 19  1  0
 19 20  1  0
 20 21  1  0
 21 22  1  0
 22 23  1  0
 22 24  1  0
 24 25  2  0
 17 26  2  0
 26  2  1  0
 16 11  1  0
 24 19  1  0
  1 27  1  0
  1 28  1  0
  1 29  1  0
  3 30  1  0
  5 31  1  0
  5 32  1  0
  5 33  1  0
  8 34  1  0
  8 35  1  0
 12 36  1  0
 12 37  1  0
 13 38  1  0
 13 39  1  0
 15 40  1  0
 15 41  1  0
 16 42  1  0
 16 43  1  0
 19 44  1  0
 20 45  1  0
 20 46  1  0
 21 47  1  0
 21 48  1  0
 23 49  1  0
 23 50  1  0
 23 51  1  0
 26 52  1  0
M  END
