LIG
     RDKit          3D

 37 37  0  0  0  0  0  0  0  0999 V2000
   34.7693    9.0626    4.2738 C   0  0  0  0  0  0  0  0  0  0  0  0
   34.6999   10.5253    4.5607 C   0  0  0  0  0  0  0  0  0  0  0  0
   35.5327   11.2995    4.0768 O   0  0  0  0  0  0  0  0  0  0  0  0
   33.7306   11.0708    5.3373 N   0  0  0  0  0  0  0  0  0  0  0  0
   32.7196   10.5796    6.1992 C   0  0  0  0  0  0  0  0  0  0  0  0
   32.5051    9.2440    6.4736 C   0  0  0  0  0  0  0  0  0  0  0  0
   31.5609    8.8592    7.4329 C   0  0  0  0  0  0  0  0  0  0  0  0
   30.7468    9.7904    8.0663 C   0  0  0  0  0  0  0  0  0  0  0  0
   30.8792   11.1337    7.7626 C   0  0  0  0  0  0  0  0  0  0  0  0
   30.0163   12.0383    8.4095 N   0  0  0  0  0  0  0  0  0  0  0  0
   29.3597   13.1353    7.9130 C   0  0  0  0  0  0  0  0  0  0  0  0
   29.2994   13.3271    6.4233 C   0  0  0  0  0  0  0  0  0  0  0  0
   28.7991   13.9248    8.6692 O   0  0  0  0  0  0  0  0  0  0  0  0
   31.9503   11.5236    6.9316 C   0  0  0  0  0  0  0  0  0  0  0  0
   32.5338   12.8913    7.1117 C   0  0  0  0  0  0  0  0  0  0  0  0
   33.8294   12.7672    7.7720 N   0  0  0  0  0  0  0  0  0  0  0  0
   34.5610   14.1796    8.1554 S   0  0  0  0  0  6  0  0  0  0  0  0
   34.9848   14.7964    6.5416 C   0  0  0  0  0  0  0  0  0  0  0  0
   35.7778   13.8210    8.8230 O   0  0  0  0  0  0  0  0  0  0  0  0
   33.5089   14.9111    8.8072 O   0  0  0  0  0  0  0  0  0  0  0  0
   35.5158    8.8867    3.4923 H   0  0  0  0  0  0  0  0  0  0  0  0
   33.8143    8.7012    3.8949 H   0  0  0  0  0  0  0  0  0  0  0  0
   35.0841    8.5160    5.1632 H   0  0  0  0  0  0  0  0  0  0  0  0
   33.8583   12.0723    5.3059 H   0  0  0  0  0  0  0  0  0  0  0  0
   33.0903    8.4576    6.0251 H   0  0  0  0  0  0  0  0  0  0  0  0
   31.4282    7.8075    7.6704 H   0  0  0  0  0  0  0  0  0  0  0  0
   29.9949    9.4385    8.7667 H   0  0  0  0  0  0  0  0  0  0  0  0
   29.6774   11.8032    9.3491 H   0  0  0  0  0  0  0  0  0  0  0  0
   30.1881   13.8307    6.0498 H   0  0  0  0  0  0  0  0  0  0  0  0
   28.4221   13.9333    6.1765 H   0  0  0  0  0  0  0  0  0  0  0  0
   29.1831   12.3660    5.9253 H   0  0  0  0  0  0  0  0  0  0  0  0
   32.6099   13.3792    6.1357 H   0  0  0  0  0  0  0  0  0  0  0  0
   31.8860   13.5227    7.7204 H   0  0  0  0  0  0  0  0  0  0  0  0
   34.5135   12.0560    7.4752 H   0  0  0  0  0  0  0  0  0  0  0  0
   35.5713   15.7002    6.6833 H   0  0  0  0  0  0  0  0  0  0  0  0
   35.6084   14.0514    6.0413 H   0  0  0  0  0  0  0  0  0  0  0  0
   34.0991   15.0063    5.9490 H   0  0  0  0  0  0  0  0  0  0  0  0
  1  2  1  0
  2  3  2  0
  2  4  1  0
  4  5  1  0
  5  6  2  0
  6  7  1  0
  7  8  2  0
  8  9  1  0
  9 10  1  0
 10 11  1  0
 11 12  1  0
 11 13  2  0
  9 14  2  0
 14 15  1  0
 15 16  1  0
 16 17  1  0
 17 18  1  0
 17 19  2  0
 17 20  2  0
 14  5  1  0
  1 21  1  0
  1 22  1  0
  1 23  1  0
  4 24  1  0
  6 25  1  0
  7 26  1  0
  8 27  1  0
 10 28  1  0
 12 29  1  0
 12 30  1  0
 12 31  1  0
 15 32  1  0
 15 33  1  0
 16 34  1  0
 18 35  1  0
 18 36  1  0
 18 37  1  0
M  END
