LIG
     RDKit          3D

 34 34  0  0  0  0  0  0  0  0999 V2000
   28.1410   15.4480   10.5470 C   0  0  0  0  0  0  0  0  0  0  0  0
   29.5320   15.0110   10.4940 N   0  0  0  0  0  0  0  0  0  0  0  0
   30.5000   15.9370   11.0760 C   0  0  0  0  0  0  0  0  0  0  0  0
   29.9260   13.8300    9.9860 C   0  0  0  0  0  0  0  0  0  0  0  0
   31.1030   13.5010    9.9720 O   0  0  0  0  0  0  0  0  0  0  0  0
   28.8670   12.8920    9.4310 C   0  0  0  0  0  0  0  0  0  0  0  0
   29.4280   11.6110    9.1450 O   0  0  0  0  0  0  0  0  0  0  0  0
   30.1520   11.4340    7.9910 C   0  0  0  0  0  0  0  0  0  0  0  0
   30.4800   10.1020    7.7350 C   0  0  0  0  0  0  0  0  0  0  0  0
   31.2880    9.8340    6.6350 C   0  0  0  0  0  0  0  0  0  0  0  0
   31.7330   10.8470    5.8070 C   0  0  0  0  0  0  0  0  0  0  0  0
   31.3810   12.1530    6.0670 C   0  0  0  0  0  0  0  0  0  0  0  0
   33.6520   12.7090    6.6590 N   0  0  0  0  0  0  0  0  0  0  0  0
   34.4250   13.2280    7.6390 C   0  0  0  0  0  0  0  0  0  0  0  0
   34.9563   12.5776    8.5786 O   0  0  0  0  0  0  0  0  0  0  0  0
   34.6680   14.7180    7.5670 C   0  0  0  0  0  0  0  0  0  0  0  0
   35.0470   15.1300    6.2680 S   0  0  0  0  0  0  0  0  0  0  0  0
   30.5900   12.4580    7.1610 C   0  0  0  0  0  0  0  0  0  0  0  0
   27.5863   15.1566    9.6562 H   0  0  0  0  0  0  0  0  0  0  0  0
   27.4859   14.5717   10.4901 H   0  0  0  0  0  0  0  0  0  0  0  0
   27.9525   16.1061    9.6946 H   0  0  0  0  0  0  0  0  0  0  0  0
   31.1576   15.4533   11.7986 H   0  0  0  0  0  0  0  0  0  0  0  0
   31.5026   15.5762   10.8438 H   0  0  0  0  0  0  0  0  0  0  0  0
   31.1080   16.3642   10.2754 H   0  0  0  0  0  0  0  0  0  0  0  0
   28.1103   12.7233   10.1999 H   0  0  0  0  0  0  0  0  0  0  0  0
   28.3999   13.3524    8.5568 H   0  0  0  0  0  0  0  0  0  0  0  0
   30.1199    9.3089    8.3721 H   0  0  0  0  0  0  0  0  0  0  0  0
   31.5703    8.7868    6.4251 H   0  0  0  0  0  0  0  0  0  0  0  0
   32.3495   10.5816    4.9496 H   0  0  0  0  0  0  0  0  0  0  0  0
   33.9391   12.3943    5.6373 H   0  0  0  0  0  0  0  0  0  0  0  0
   35.3994   14.9113    8.4559 H   0  0  0  0  0  0  0  0  0  0  0  0
   33.6971   15.1656    8.0241 H   0  0  0  0  0  0  0  0  0  0  0  0
   35.9311   16.1622    6.4964 H   0  0  0  0  0  0  0  0  0  0  0  0
   30.2923   13.4784    7.4026 H   0  0  0  0  0  0  0  0  0  0  0  0
  1  2  1  0
  2  3  1  0
  2  4  1  0
  4  5  2  0
  4  6  1  0
  6  7  1  0
  7  8  1  0
  8  9  4  0
  9 10  4  0
 10 11  4  0
 11 12  4  0
 12 13  1  0
 13 14  1  0
 14 15  2  0
 14 16  1  0
 16 17  1  0
 12 18  4  0
 18  8  4  0
  1 19  1  0
  1 20  1  0
  1 21  1  0
  3 22  1  0
  3 23  1  0
  3 24  1  0
  6 25  1  0
  6 26  1  0
  9 27  1  0
 10 28  1  0
 11 29  1  0
 13 30  1  0
 16 31  1  0
 16 32  1  0
 17 33  1  0
 18 34  1  0
M  END
$$$$
LIG
     RDKit          3D

 34 34  0  0  0  0  0  0  0  0999 V2000
   30.5000   15.9370   11.0760 C   0  0  0  0  0  0  0  0  0  0  0  0
   29.5320   15.0110   10.4940 N   0  0  0  0  0  0  0  0  0  0  0  0
   28.1410   15.4480   10.5470 C   0  0  0  0  0  0  0  0  0  0  0  0
   29.9260   13.8300    9.9860 C   0  0  0  0  0  0  0  0  0  0  0  0
   31.1030   13.5010    9.9720 O   0  0  0  0  0  0  0  0  0  0  0  0
   28.8670   12.8920    9.4310 C   0  0  0  0  0  0  0  0  0  0  0  0
   29.4280   11.6110    9.1450 O   0  0  0  0  0  0  0  0  0  0  0  0
   30.1520   11.4340    7.9910 C   0  0  0  0  0  0  0  0  0  0  0  0
   30.4800   10.1020    7.7350 C   0  0  0  0  0  0  0  0  0  0  0  0
   31.2880    9.8340    6.6350 C   0  0  0  0  0  0  0  0  0  0  0  0
   31.7330   10.8470    5.8070 C   0  0  0  0  0  0  0  0  0  0  0  0
   31.3810   12.1530    6.0670 C   0  0  0  0  0  0  0  0  0  0  0  0
   33.6520   12.7090    6.6590 N   0  0  0  0  0  0  0  0  0  0  0  0
   34.4250   13.2280    7.6390 C   0  0  0  0  0  0  0  0  0  0  0  0
   34.9855   12.5702    8.5484 O   0  0  0  0  0  0  0  0  0  0  0  0
   34.6680   14.7180    7.5670 C   0  0  0  0  0  0  0  0  0  0  0  0
   35.0470   15.1300    6.2680 S   0  0  0  0  0  0  0  0  0  0  0  0
   30.5900   12.4580    7.1610 C   0  0  0  0  0  0  0  0  0  0  0  0
   30.9603   16.5701   10.3147 H   0  0  0  0  0  0  0  0  0  0  0  0
   30.1796   16.9578   10.8525 H   0  0  0  0  0  0  0  0  0  0  0  0
   29.9912   16.5754   11.8023 H   0  0  0  0  0  0  0  0  0  0  0  0
   27.8423   15.5807   11.5905 H   0  0  0  0  0  0  0  0  0  0  0  0
   28.0992   16.4229   11.0398 H   0  0  0  0  0  0  0  0  0  0  0  0
   27.5207   14.7343   11.0909 H   0  0  0  0  0  0  0  0  0  0  0  0
   28.0519   12.8191   10.1607 H   0  0  0  0  0  0  0  0  0  0  0  0
   28.4854   13.3364    8.5038 H   0  0  0  0  0  0  0  0  0  0  0  0
   30.1289    9.2893    8.3372 H   0  0  0  0  0  0  0  0  0  0  0  0
   31.5717    8.7948    6.4214 H   0  0  0  0  0  0  0  0  0  0  0  0
   32.3583   10.5870    4.9542 H   0  0  0  0  0  0  0  0  0  0  0  0
   33.9498   12.3938    5.6499 H   0  0  0  0  0  0  0  0  0  0  0  0
   35.4023   14.8986    8.4371 H   0  0  0  0  0  0  0  0  0  0  0  0
   33.6983   15.1600    7.9989 H   0  0  0  0  0  0  0  0  0  0  0  0
   34.3209   16.2813    6.0437 H   0  0  0  0  0  0  0  0  0  0  0  0
   30.2976   13.4694    7.3951 H   0  0  0  0  0  0  0  0  0  0  0  0
  1  2  1  0
  2  3  1  0
  2  4  1  0
  4  5  2  0
  4  6  1  0
  6  7  1  0
  7  8  1  0
  8  9  4  0
  9 10  4  0
 10 11  4  0
 11 12  4  0
 12 13  1  0
 13 14  1  0
 14 15  2  0
 14 16  1  0
 16 17  1  0
 12 18  4  0
 18  8  4  0
  1 19  1  0
  1 20  1  0
  1 21  1  0
  3 22  1  0
  3 23  1  0
  3 24  1  0
  6 25  1  0
  6 26  1  0
  9 27  1  0
 10 28  1  0
 11 29  1  0
 13 30  1  0
 16 31  1  0
 16 32  1  0
 17 33  1  0
 18 34  1  0
M  END
$$$$
LIG
     RDKit          3D

 34 34  0  0  0  0  0  0  0  0999 V2000
   28.1410   15.4480   10.5470 C   0  0  0  0  0  0  0  0  0  0  0  0
   29.5320   15.0110   10.4940 N   0  0  0  0  0  0  0  0  0  0  0  0
   30.5000   15.9370   11.0760 C   0  0  0  0  0  0  0  0  0  0  0  0
   29.9260   13.8300    9.9860 C   0  0  0  0  0  0  0  0  0  0  0  0
   31.1030   13.5010    9.9720 O   0  0  0  0  0  0  0  0  0  0  0  0
   28.8670   12.8920    9.4310 C   0  0  0  0  0  0  0  0  0  0  0  0
   29.4280   11.6110    9.1450 O   0  0  0  0  0  0  0  0  0  0  0  0
   30.1520   11.4340    7.9910 C   0  0  0  0  0  0  0  0  0  0  0  0
   30.4800   10.1020    7.7350 C   0  0  0  0  0  0  0  0  0  0  0  0
   31.2880    9.8340    6.6350 C   0  0  0  0  0  0  0  0  0  0  0  0
   31.7330   10.8470    5.8070 C   0  0  0  0  0  0  0  0  0  0  0  0
   31.3810   12.1530    6.0670 C   0  0  0  0  0  0  0  0  0  0  0  0
   33.6520   12.7090    6.6590 N   0  0  0  0  0  0  0  0  0  0  0  0
   34.4250   13.2280    7.6390 C   0  0  0  0  0  0  0  0  0  0  0  0
   34.9509   12.5735    8.5781 O   0  0  0  0  0  0  0  0  0  0  0  0
   34.6680   14.7180    7.5670 C   0  0  0  0  0  0  0  0  0  0  0  0
   35.0470   15.1300    6.2680 S   0  0  0  0  0  0  0  0  0  0  0  0
   30.5900   12.4580    7.1610 C   0  0  0  0  0  0  0  0  0  0  0  0
   27.4794   14.5786   10.4808 H   0  0  0  0  0  0  0  0  0  0  0  0
   27.6221   15.0129   11.4020 H   0  0  0  0  0  0  0  0  0  0  0  0
   27.9757   15.9704   11.4944 H   0  0  0  0  0  0  0  0  0  0  0  0
   31.5049   15.5723   10.8476 H   0  0  0  0  0  0  0  0  0  0  0  0
   31.1195   15.4041   11.8028 H   0  0  0  0  0  0  0  0  0  0  0  0
   30.3813   16.0095   12.1603 H   0  0  0  0  0  0  0  0  0  0  0  0
   28.0828   12.7792   10.1863 H   0  0  0  0  0  0  0  0  0  0  0  0
   28.4813   13.3304    8.5043 H   0  0  0  0  0  0  0  0  0  0  0  0
   30.1245    9.3166    8.3679 H   0  0  0  0  0  0  0  0  0  0  0  0
   31.5780    8.7925    6.4298 H   0  0  0  0  0  0  0  0  0  0  0  0
   32.3577   10.5853    4.9554 H   0  0  0  0  0  0  0  0  0  0  0  0
   33.9585   12.2555    5.7030 H   0  0  0  0  0  0  0  0  0  0  0  0
   35.4008   14.9064    8.4487 H   0  0  0  0  0  0  0  0  0  0  0  0
   33.7020   15.1747    8.0185 H   0  0  0  0  0  0  0  0  0  0  0  0
   34.4339   14.2284    5.4201 H   0  0  0  0  0  0  0  0  0  0  0  0
   30.3206   13.4810    7.3724 H   0  0  0  0  0  0  0  0  0  0  0  0
  1  2  1  0
  2  3  1  0
  2  4  1  0
  4  5  2  0
  4  6  1  0
  6  7  1  0
  7  8  1  0
  8  9  4  0
  9 10  4  0
 10 11  4  0
 11 12  4  0
 12 13  1  0
 13 14  1  0
 14 15  2  0
 14 16  1  0
 16 17  1  0
 12 18  4  0
 18  8  4  0
  1 19  1  0
  1 20  1  0
  1 21  1  0
  3 22  1  0
  3 23  1  0
  3 24  1  0
  6 25  1  0
  6 26  1  0
  9 27  1  0
 10 28  1  0
 11 29  1  0
 13 30  1  0
 16 31  1  0
 16 32  1  0
 17 33  1  0
 18 34  1  0
M  END
$$$$
