LIG
     RDKit          3D

 34 34  0  0  0  0  0  0  0  0999 V2000
   -4.1549   -0.1683   -2.0852 C   0  0  0  0  0  0  0  0  0  0  0  0
   -4.1674   -0.4107   -0.6498 N   0  0  0  0  0  0  0  0  0  0  0  0
   -5.4331   -0.8654   -0.0915 C   0  0  0  0  0  0  0  0  0  0  0  0
   -3.2170    0.1114    0.2352 C   0  0  0  0  0  0  0  0  0  0  0  0
   -3.4027    0.1049    1.4542 O   0  0  0  0  0  0  0  0  0  0  0  0
   -1.9254    0.6786   -0.3809 C   0  0  0  0  0  0  0  0  0  0  0  0
   -0.9974    1.1925    0.5746 O   0  0  0  0  0  0  0  0  0  0  0  0
    0.0418    0.3237    0.7844 C   0  0  0  0  0  0  0  0  0  0  0  0
   -0.1316   -0.8218    1.5574 C   0  0  0  0  0  0  0  0  0  0  0  0
    0.9521   -1.6661    1.7797 C   0  0  0  0  0  0  0  0  0  0  0  0
    2.2041   -1.3487    1.2435 C   0  0  0  0  0  0  0  0  0  0  0  0
    2.3858   -0.1850    0.4813 C   0  0  0  0  0  0  0  0  0  0  0  0
    3.6849    0.0608   -0.0085 N   0  0  0  0  0  0  0  0  0  0  0  0
    4.1206    1.1266   -0.7760 C   0  0  0  0  0  0  0  0  0  0  0  0
    3.4251    2.0412   -1.2090 O   0  0  0  0  0  0  0  0  0  0  0  0
    5.5975    1.0453   -1.1450 C   0  0  0  0  0  0  0  0  0  0  0  0
    6.6378    0.5997    0.2790 S   0  0  0  0  0  0  0  0  0  0  0  0
    1.2938    0.6552    0.2608 C   0  0  0  0  0  0  0  0  0  0  0  0
   -4.7512    0.7277   -2.2892 H   0  0  0  0  0  0  0  0  0  0  0  0
   -3.1453   -0.0134   -2.4747 H   0  0  0  0  0  0  0  0  0  0  0  0
   -4.5941   -1.0302   -2.5987 H   0  0  0  0  0  0  0  0  0  0  0  0
   -5.3139   -1.2205    0.9373 H   0  0  0  0  0  0  0  0  0  0  0  0
   -5.8229   -1.6898   -0.6986 H   0  0  0  0  0  0  0  0  0  0  0  0
   -6.1408   -0.0297   -0.0992 H   0  0  0  0  0  0  0  0  0  0  0  0
   -1.4672   -0.0879   -1.0219 H   0  0  0  0  0  0  0  0  0  0  0  0
   -2.2058    1.5273   -1.0156 H   0  0  0  0  0  0  0  0  0  0  0  0
   -1.0995   -1.0493    1.9989 H   0  0  0  0  0  0  0  0  0  0  0  0
    0.8251   -2.5655    2.3788 H   0  0  0  0  0  0  0  0  0  0  0  0
    3.0353   -2.0212    1.4398 H   0  0  0  0  0  0  0  0  0  0  0  0
    4.4044   -0.5973    0.2739 H   0  0  0  0  0  0  0  0  0  0  0  0
    5.9259    2.0204   -1.5200 H   0  0  0  0  0  0  0  0  0  0  0  0
    5.7223    0.3012   -1.9393 H   0  0  0  0  0  0  0  0  0  0  0  0
    6.3300    1.6769    1.0234 H   0  0  0  0  0  0  0  0  0  0  0  0
    1.3836    1.5777   -0.3026 H   0  0  0  0  0  0  0  0  0  0  0  0
  1  2  1  0
  2  3  1  0
  2  4  1  0
  4  5  2  0
  4  6  1  0
  6  7  1  0
  7  8  1  0
  8  9  2  0
  9 10  1  0
 10 11  2  0
 11 12  1  0
 12 13  1  0
 13 14  1  0
 14 15  2  0
 14 16  1  0
 16 17  1  0
 12 18  2  0
 18  8  1  0
  1 19  1  0
  1 20  1  0
  1 21  1  0
  3 22  1  0
  3 23  1  0
  3 24  1  0
  6 25  1  0
  6 26  1  0
  9 27  1  0
 10 28  1  0
 11 29  1  0
 13 30  1  0
 16 31  1  0
 16 32  1  0
 17 33  1  0
 18 34  1  0
M  END
