LIG
     RDKit          3D

 34 34  0  0  0  0  0  0  0  0999 V2000
   30.9236   15.7961   11.3583 C   0  0  0  0  0  0  0  0  0  0  0  0
   29.8746   15.0671   10.6610 N   0  0  0  0  0  0  0  0  0  0  0  0
   28.7394   14.7027   11.4639 C   0  0  0  0  0  0  0  0  0  0  0  0
   30.3248   14.1355    9.7253 C   0  0  0  0  0  0  0  0  0  0  0  0
   31.5359   13.9817    9.5816 O   0  0  0  0  0  0  0  0  0  0  0  0
   29.2744   13.4262    8.8225 C   0  0  0  0  0  0  0  0  0  0  0  0
   29.4172   12.0548    8.4925 O   0  0  0  0  0  0  0  0  0  0  0  0
   30.5040   11.6448    7.7899 C   0  0  0  0  0  0  0  0  0  0  0  0
   30.7046   10.2655    7.6962 C   0  0  0  0  0  0  0  0  0  0  0  0
   31.7347    9.7515    6.9028 C   0  0  0  0  0  0  0  0  0  0  0  0
   32.6098   10.6222    6.2731 C   0  0  0  0  0  0  0  0  0  0  0  0
   33.5644   10.1476    5.4653 F   0  0  0  0  0  0  0  0  0  0  0  0
   32.5267   11.9794    6.5370 C   0  0  0  0  0  0  0  0  0  0  0  0
   33.6091   12.8446    6.2951 N   0  0  0  0  0  0  0  0  0  0  0  0
   34.2512   13.3961    7.4142 C   0  0  0  0  0  0  0  0  0  0  0  0
   34.0009   13.0844    8.5809 O   0  0  0  0  0  0  0  0  0  0  0  0
   35.2673   14.4723    7.1042 C   0  0  0  0  0  0  0  0  0  0  0  0
   36.1175   14.1899    5.5336 S   0  0  0  0  0  0  0  0  0  0  0  0
   31.4165   12.4941    7.1926 C   0  0  0  0  0  0  0  0  0  0  0  0
   31.3614   15.1480   12.1080 H   0  0  0  0  0  0  0  0  0  0  0  0
   31.7109   16.1132   10.6709 H   0  0  0  0  0  0  0  0  0  0  0  0
   30.5200   16.6838   11.8473 H   0  0  0  0  0  0  0  0  0  0  0  0
   27.8322   14.7262   10.8600 H   0  0  0  0  0  0  0  0  0  0  0  0
   28.6442   15.3857   12.3080 H   0  0  0  0  0  0  0  0  0  0  0  0
   28.8783   13.7066   11.8686 H   0  0  0  0  0  0  0  0  0  0  0  0
   28.2882   13.5004    9.2816 H   0  0  0  0  0  0  0  0  0  0  0  0
   29.1889   14.0191    7.9017 H   0  0  0  0  0  0  0  0  0  0  0  0
   30.0293    9.5790    8.2028 H   0  0  0  0  0  0  0  0  0  0  0  0
   31.8664    8.6796    6.7990 H   0  0  0  0  0  0  0  0  0  0  0  0
   34.2918   12.5388    5.6046 H   0  0  0  0  0  0  0  0  0  0  0  0
   36.0077   14.4871    7.9083 H   0  0  0  0  0  0  0  0  0  0  0  0
   34.7606   15.4361    7.0680 H   0  0  0  0  0  0  0  0  0  0  0  0
   36.8070   13.1143    5.9463 H   0  0  0  0  0  0  0  0  0  0  0  0
   31.3443   13.5684    7.2826 H   0  0  0  0  0  0  0  0  0  0  0  0
  1  2  1  0
  2  3  1  0
  2  4  1  0
  4  5  2  0
  4  6  1  0
  6  7  1  0
  7  8  1  0
  8  9  2  0
  9 10  1  0
 10 11  2  0
 11 12  1  0
 11 13  1  0
 13 14  1  0
 14 15  1  0
 15 16  2  0
 15 17  1  0
 17 18  1  0
 13 19  2  0
 19  8  1  0
  1 20  1  0
  1 21  1  0
  1 22  1  0
  3 23  1  0
  3 24  1  0
  3 25  1  0
  6 26  1  0
  6 27  1  0
  9 28  1  0
 10 29  1  0
 14 30  1  0
 17 31  1  0
 17 32  1  0
 18 33  1  0
 19 34  1  0
M  END
