LIG
     RDKit          3D

 33 33  0  0  0  0  0  0  0  0999 V2000
   30.5000   15.9370   11.0760 C   0  0  0  0  0  0  0  0  0  0  0  0
   29.5320   15.0110   10.4940 N   0  0  0  0  0  0  0  0  0  0  0  0
   28.1410   15.4480   10.5470 C   0  0  0  0  0  0  0  0  0  0  0  0
   29.9260   13.8300    9.9860 C   0  0  0  0  0  0  0  0  0  0  0  0
   31.1030   13.5010    9.9720 O   0  0  0  0  0  0  0  0  0  0  0  0
   28.8670   12.8920    9.4310 C   0  0  0  0  0  0  0  0  0  0  0  0
   29.4280   11.6110    9.1450 O   0  0  0  0  0  0  0  0  0  0  0  0
   30.1520   11.4340    7.9910 C   0  0  0  0  0  0  0  0  0  0  0  0
   30.4800   10.1020    7.7350 C   0  0  0  0  0  0  0  0  0  0  0  0
   31.2880    9.8340    6.6350 N   0  0  0  0  0  0  0  0  0  0  0  0
   31.7330   10.8470    5.8070 C   0  0  0  0  0  0  0  0  0  0  0  0
   31.3810   12.1530    6.0670 C   0  0  0  0  0  0  0  0  0  0  0  0
   33.6520   12.7090    6.6590 N   0  0  0  0  0  0  0  0  0  0  0  0
   34.4250   13.2280    7.6390 C   0  0  0  0  0  0  0  0  0  0  0  0
   34.9685   12.5722    8.5427 O   0  0  0  0  0  0  0  0  0  0  0  0
   34.6680   14.7180    7.5670 C   0  0  0  0  0  0  0  0  0  0  0  0
   35.0470   15.1300    6.2680 S   0  0  0  0  0  0  0  0  0  0  0  0
   30.5900   12.4580    7.1610 C   0  0  0  0  0  0  0  0  0  0  0  0
   31.4018   15.9248   10.4586 H   0  0  0  0  0  0  0  0  0  0  0  0
   31.4265   15.4327   11.3511 H   0  0  0  0  0  0  0  0  0  0  0  0
   30.7356   16.7173   10.3477 H   0  0  0  0  0  0  0  0  0  0  0  0
   27.6066   15.2233    9.6212 H   0  0  0  0  0  0  0  0  0  0  0  0
   27.9738   16.1694    9.7424 H   0  0  0  0  0  0  0  0  0  0  0  0
   27.4892   14.5815   10.4064 H   0  0  0  0  0  0  0  0  0  0  0  0
   28.3818   13.3024    8.5646 H   0  0  0  0  0  0  0  0  0  0  0  0
   28.1441   12.7248   10.2149 H   0  0  0  0  0  0  0  0  0  0  0  0
   30.1783    9.2755    8.2776 H   0  0  0  0  0  0  0  0  0  0  0  0
   32.3303   10.5194    4.9998 H   0  0  0  0  0  0  0  0  0  0  0  0
   33.9634   12.3724    5.6599 H   0  0  0  0  0  0  0  0  0  0  0  0
   33.6992   15.1468    7.9819 H   0  0  0  0  0  0  0  0  0  0  0  0
   35.4080   14.8890    8.4164 H   0  0  0  0  0  0  0  0  0  0  0  0
   33.9193   15.7298    5.7491 H   0  0  0  0  0  0  0  0  0  0  0  0
   30.3052   13.4758    7.3873 H   0  0  0  0  0  0  0  0  0  0  0  0
  1  2  1  0
  2  3  1  0
  2  4  1  0
  4  5  2  0
  4  6  1  0
  6  7  1  0
  7  8  1  0
  8  9  4  0
  9 10  4  0
 10 11  4  0
 11 12  4  0
 12 13  1  0
 13 14  1  0
 14 15  2  0
 14 16  1  0
 16 17  1  0
 12 18  4  0
 18  8  4  0
  1 19  1  0
  1 20  1  0
  1 21  1  0
  3 22  1  0
  3 23  1  0
  3 24  1  0
  6 25  1  0
  6 26  1  0
  9 27  1  0
 11 28  1  0
 13 29  1  0
 16 30  1  0
 16 31  1  0
 17 32  1  0
 18 33  1  0
M  END
