LIG
     RDKit          3D

 42 44  0  0  0  0  0  0  0  0999 V2000
   27.7378   15.7771    8.9647 C   0  0  0  0  0  0  0  0  0  0  0  0
   28.6883   15.0138    8.2479 N   0  0  0  0  0  0  0  0  0  0  0  0
   28.2504   13.9435    7.3963 C   0  0  0  0  0  0  0  0  0  0  0  0
   28.7411   12.7358    8.1373 C   0  0  0  0  0  0  0  0  0  0  0  0
   30.1086   13.1953    8.6141 C   0  0  0  0  0  0  0  0  0  0  0  0
   31.0253   13.2322    7.5691 O   0  0  0  0  0  0  0  0  0  0  0  0
   31.5636   12.0576    7.1736 C   0  0  0  0  0  0  0  0  0  0  0  0
   31.3333   10.7601    7.5981 C   0  0  0  0  0  0  0  0  0  0  0  0
   32.0255    9.7162    6.9717 C   0  0  0  0  0  0  0  0  0  0  0  0
   32.9529    9.9814    5.9480 C   0  0  0  0  0  0  0  0  0  0  0  0
   33.1771   11.2963    5.5481 C   0  0  0  0  0  0  0  0  0  0  0  0
   34.0375   11.6459    4.4968 N   0  0  0  0  0  0  0  0  0  0  0  0
   34.4340   12.9565    4.2345 C   0  0  0  0  0  0  0  0  0  0  0  0
   34.3314   13.9164    4.9984 O   0  0  0  0  0  0  0  0  0  0  0  0
   34.9828   13.1659    2.8307 C   0  0  0  0  0  0  0  0  0  0  0  0
   34.1939   14.2731    2.1415 C   0  0  0  0  0  0  0  0  0  0  0  0
   34.3587   13.9195    0.6901 C   0  0  0  0  0  0  0  0  0  0  0  0
   34.3283   12.4091    0.7319 C   0  0  0  0  0  0  0  0  0  0  0  0
   34.8712   12.0048    1.9969 O   0  0  0  0  0  0  0  0  0  0  0  0
   32.4546   12.3008    6.1591 C   0  0  0  0  0  0  0  0  0  0  0  0
   29.8343   14.6364    8.9685 C   0  0  0  0  0  0  0  0  0  0  0  0
   30.4485   15.3294    9.7680 O   0  0  0  0  0  0  0  0  0  0  0  0
   28.0395   16.8136    8.8586 H   0  0  0  0  0  0  0  0  0  0  0  0
   27.7117   15.4377   10.0012 H   0  0  0  0  0  0  0  0  0  0  0  0
   26.7487   15.6275    8.5446 H   0  0  0  0  0  0  0  0  0  0  0  0
   27.1716   13.9375    7.2374 H   0  0  0  0  0  0  0  0  0  0  0  0
   28.7460   14.0565    6.4253 H   0  0  0  0  0  0  0  0  0  0  0  0
   28.7419   11.8541    7.4950 H   0  0  0  0  0  0  0  0  0  0  0  0
   28.0976   12.5765    9.0041 H   0  0  0  0  0  0  0  0  0  0  0  0
   30.5131   12.6885    9.4724 H   0  0  0  0  0  0  0  0  0  0  0  0
   30.6310   10.5206    8.3895 H   0  0  0  0  0  0  0  0  0  0  0  0
   31.8542    8.6881    7.2888 H   0  0  0  0  0  0  0  0  0  0  0  0
   33.4944    9.1573    5.4891 H   0  0  0  0  0  0  0  0  0  0  0  0
   34.4290   10.9252    3.8983 H   0  0  0  0  0  0  0  0  0  0  0  0
   36.0464   13.4182    2.9076 H   0  0  0  0  0  0  0  0  0  0  0  0
   34.5667   15.2720    2.3872 H   0  0  0  0  0  0  0  0  0  0  0  0
   33.1320   14.2352    2.4163 H   0  0  0  0  0  0  0  0  0  0  0  0
   33.5897   14.3458    0.0408 H   0  0  0  0  0  0  0  0  0  0  0  0
   35.3370   14.2631    0.3338 H   0  0  0  0  0  0  0  0  0  0  0  0
   34.9057   11.9548   -0.0782 H   0  0  0  0  0  0  0  0  0  0  0  0
   33.3006   12.0336    0.6781 H   0  0  0  0  0  0  0  0  0  0  0  0
   32.5260   13.3357    5.8458 H   0  0  0  0  0  0  0  0  0  0  0  0
  1  2  1  0
  2  3  1  0
  3  4  1  0
  4  5  1  0
  5  6  1  0
  6  7  1  0
  7  8  2  0
  8  9  1  0
  9 10  2  0
 10 11  1  0
 11 12  1  0
 12 13  1  0
 13 14  2  0
 13 15  1  0
 15 16  1  0
 16 17  1  0
 17 18  1  0
 18 19  1  0
 11 20  2  0
  5 21  1  0
 21 22  2  0
 21  2  1  0
 20  7  1  0
 19 15  1  0
  1 23  1  0
  1 24  1  0
  1 25  1  0
  3 26  1  0
  3 27  1  0
  4 28  1  0
  4 29  1  0
  5 30  1  0
  8 31  1  0
  9 32  1  0
 10 33  1  0
 12 34  1  0
 15 35  1  0
 16 36  1  0
 16 37  1  0
 17 38  1  0
 17 39  1  0
 18 40  1  0
 18 41  1  0
 20 42  1  0
M  END
