A71EV2A-x0922_A_147_A71EV2A-x0501+A+152+1
     RDKit          3D

 14 14  0  0  0  0  0  0  0  0999 V2000
   31.1030   13.5010    9.9720 O   0  0  0  0  0  0  0  0  0  0  0  0
   29.9260   13.8300    9.9860 C   0  0  0  0  0  0  0  0  0  0  0  0
   29.5320   15.0110   10.4940 N   0  0  0  0  0  0  0  0  0  0  0  0
   30.5000   15.9370   11.0760 C   0  0  0  0  0  0  0  0  0  0  0  0
   28.1410   15.4480   10.5470 C   0  0  0  0  0  0  0  0  0  0  0  0
   28.8670   12.8920    9.4310 C   0  0  0  0  0  0  0  0  0  0  0  0
   29.4280   11.6110    9.1450 O   0  0  0  0  0  0  0  0  0  0  0  0
   30.1520   11.4340    7.9910 C   0  0  0  0  0  0  0  0  0  0  0  0
   30.4800   10.1020    7.7350 C   0  0  0  0  0  0  0  0  0  0  0  0
   29.9390    8.9850    8.5900 C   0  0  0  0  0  0  0  0  0  0  0  0
   31.2880    9.8340    6.6350 C   0  0  0  0  0  0  0  0  0  0  0  0
   31.7330   10.8470    5.8070 C   0  0  0  0  0  0  0  0  0  0  0  0
   31.3810   12.1530    6.0670 C   0  0  0  0  0  0  0  0  0  0  0  0
   30.5900   12.4580    7.1610 C   0  0  0  0  0  0  0  0  0  0  0  0
  5  3  1  0
  4  3  1  0
  3  2  1  0
  2  1  2  0
  6  2  1  0
  7  6  1  0
  8  7  1  0
  8 14  4  0
 14 13  4  0
 13 12  4  0
 12 11  4  0
 11  9  4  0
  9  8  4  0
 10  9  1  0
M  END
