LIG
     RDKit          3D

 37 38  0  0  0  0  0  0  0  0999 V2000
   30.3096    8.4862   10.2101 C   0  0  0  0  0  0  0  0  0  0  0  0
   31.1082    9.1148    9.1778 C   0  0  0  0  0  0  0  0  0  0  0  0
   31.9976    8.2825    8.5153 C   0  0  0  0  0  0  0  0  0  0  0  0
   32.4233    8.4412    7.2526 N   0  0  0  0  0  0  0  0  0  0  0  0
   31.8547    9.4712    6.6813 C   0  0  0  0  0  0  0  0  0  0  0  0
   32.6997   10.2509    5.8576 N   0  0  0  0  0  0  0  0  0  0  0  0
   32.7745   11.6420    5.7839 C   0  0  0  0  0  0  0  0  0  0  0  0
   33.5201   12.2284    5.0102 O   0  0  0  0  0  0  0  0  0  0  0  0
   31.8428   12.3553    6.7704 C   0  0  0  0  0  0  0  0  0  0  0  0
   31.4363   13.6124    7.2048 O   0  0  0  0  0  0  0  0  0  0  0  0
   30.5051   13.4288    8.2916 C   0  0  0  0  0  0  0  0  0  0  0  0
   29.1173   12.9362    7.8266 C   0  0  0  0  0  0  0  0  0  0  0  0
   28.4483   14.2021    7.4084 C   0  0  0  0  0  0  0  0  0  0  0  0
   28.9081   15.0954    8.4264 N   0  0  0  0  0  0  0  0  0  0  0  0
   28.5072   16.4409    8.3723 C   0  0  0  0  0  0  0  0  0  0  0  0
   30.1370   14.7309    8.9566 C   0  0  0  0  0  0  0  0  0  0  0  0
   30.8144   15.3691    9.7490 O   0  0  0  0  0  0  0  0  0  0  0  0
   30.6566    9.8986    7.2588 C   0  0  0  0  0  0  0  0  0  0  0  0
   29.5679    8.8787    7.4102 O   0  0  0  0  0  0  0  0  0  0  0  0
   30.6705   10.2265    8.5640 C   0  0  0  0  0  0  0  0  0  0  0  0
   29.4254    9.0316   10.5011 H   0  0  0  0  0  0  0  0  0  0  0  0
   29.9641    7.6147    9.6635 H   0  0  0  0  0  0  0  0  0  0  0  0
   30.8993    8.2202   11.0758 H   0  0  0  0  0  0  0  0  0  0  0  0
   32.4028    7.5108    9.1288 H   0  0  0  0  0  0  0  0  0  0  0  0
   33.5034    9.7563    5.4851 H   0  0  0  0  0  0  0  0  0  0  0  0
   30.9125   11.9730    6.3611 H   0  0  0  0  0  0  0  0  0  0  0  0
   32.2157   11.9008    7.6921 H   0  0  0  0  0  0  0  0  0  0  0  0
   30.9326   12.7991    9.0685 H   0  0  0  0  0  0  0  0  0  0  0  0
   28.5716   12.5320    8.6847 H   0  0  0  0  0  0  0  0  0  0  0  0
   29.0806   12.2086    7.0180 H   0  0  0  0  0  0  0  0  0  0  0  0
   27.3592   14.1309    7.4202 H   0  0  0  0  0  0  0  0  0  0  0  0
   28.7960   14.5433    6.4272 H   0  0  0  0  0  0  0  0  0  0  0  0
   28.4539   16.7267    7.3284 H   0  0  0  0  0  0  0  0  0  0  0  0
   27.5641   16.4823    8.9124 H   0  0  0  0  0  0  0  0  0  0  0  0
   29.2253   17.1090    8.8167 H   0  0  0  0  0  0  0  0  0  0  0  0
   29.8879    7.9931    7.1274 H   0  0  0  0  0  0  0  0  0  0  0  0
   29.8249   10.7380    8.9956 H   0  0  0  0  0  0  0  0  0  0  0  0
  1  2  1  0
  2  3  2  0
  3  4  1  0
  4  5  2  0
  5  6  1  0
  6  7  1  0
  7  8  2  0
  7  9  1  0
  9 10  1  0
 10 11  1  0
 11 12  1  0
 12 13  1  0
 13 14  1  0
 14 15  1  0
 14 16  1  0
 16 17  2  0
  5 18  1  0
 18 19  1  0
 18 20  2  0
 20  2  1  0
 16 11  1  0
  1 21  1  0
  1 22  1  0
  1 23  1  0
  3 24  1  0
  6 25  1  0
  9 26  1  0
  9 27  1  0
 11 28  1  0
 12 29  1  0
 12 30  1  0
 13 31  1  0
 13 32  1  0
 15 33  1  0
 15 34  1  0
 15 35  1  0
 19 36  1  0
 20 37  1  0
M  END
