LIG
     RDKit          3D

 49 51  0  0  0  0  0  0  0  0999 V2000
   34.0025    9.4472    5.4832 C   0  0  0  0  0  0  0  0  0  0  0  0
   32.8327    9.7934    6.3599 C   0  0  0  0  0  0  0  0  0  0  0  0
   32.2310    8.8095    7.1450 C   0  0  0  0  0  0  0  0  0  0  0  0
   31.2140    9.1060    8.0308 C   0  0  0  0  0  0  0  0  0  0  0  0
   30.7849   10.4143    8.1312 C   0  0  0  0  0  0  0  0  0  0  0  0
   31.3164   11.4200    7.3099 C   0  0  0  0  0  0  0  0  0  0  0  0
   30.8622   12.7106    7.3319 O   0  0  0  0  0  0  0  0  0  0  0  0
   30.0589   13.0701    8.4268 C   0  0  0  0  0  0  0  0  0  0  0  0
   28.6089   12.7563    8.0883 C   0  0  0  0  0  0  0  0  0  0  0  0
   28.2168   13.9647    7.2975 C   0  0  0  0  0  0  0  0  0  0  0  0
   28.8113   15.0328    8.0431 N   0  0  0  0  0  0  0  0  0  0  0  0
   27.9592   15.7957    8.8968 C   0  0  0  0  0  0  0  0  0  0  0  0
   29.9733   14.5599    8.6931 C   0  0  0  0  0  0  0  0  0  0  0  0
   30.7162   15.2053    9.4208 O   0  0  0  0  0  0  0  0  0  0  0  0
   32.3176   11.0923    6.3855 C   0  0  0  0  0  0  0  0  0  0  0  0
   32.8554   11.8799    5.4071 O   0  0  0  0  0  0  0  0  0  0  0  0
   32.5300   13.2500    5.3214 C   0  0  0  0  0  0  0  0  0  0  0  0
   33.4397   13.9478    6.2992 C   0  0  0  0  0  0  0  0  0  0  0  0
   33.2549   13.8375    7.5154 O   0  0  0  0  0  0  0  0  0  0  0  0
   34.5060   14.6704    5.8000 N   0  0  0  0  0  0  0  0  0  0  0  0
   35.5864   14.8770    6.7503 C   0  0  0  0  0  0  0  0  0  0  0  0
   36.6145   13.7709    6.4995 C   0  0  0  0  0  0  0  0  0  0  0  0
   37.1722   13.9289    5.1763 O   0  0  0  0  0  0  0  0  0  0  0  0
   36.1343   13.7475    4.1935 C   0  0  0  0  0  0  0  0  0  0  0  0
   34.9813   14.7338    4.4108 C   0  0  0  0  0  0  0  0  0  0  0  0
   34.7508   10.2465    5.4820 H   0  0  0  0  0  0  0  0  0  0  0  0
   34.5077    8.5441    5.8306 H   0  0  0  0  0  0  0  0  0  0  0  0
   33.6686    9.2789    4.4557 H   0  0  0  0  0  0  0  0  0  0  0  0
   32.5905    7.7946    7.1085 H   0  0  0  0  0  0  0  0  0  0  0  0
   30.7724    8.3283    8.6476 H   0  0  0  0  0  0  0  0  0  0  0  0
   29.9962   10.6014    8.8474 H   0  0  0  0  0  0  0  0  0  0  0  0
   30.4259   12.6381    9.3471 H   0  0  0  0  0  0  0  0  0  0  0  0
   28.4553   11.8521    7.4967 H   0  0  0  0  0  0  0  0  0  0  0  0
   28.0245   12.7170    9.0099 H   0  0  0  0  0  0  0  0  0  0  0  0
   28.6736   13.9557    6.3005 H   0  0  0  0  0  0  0  0  0  0  0  0
   27.1399   14.0697    7.1770 H   0  0  0  0  0  0  0  0  0  0  0  0
   28.2615   16.8315    8.7647 H   0  0  0  0  0  0  0  0  0  0  0  0
   28.0520   15.4379    9.9253 H   0  0  0  0  0  0  0  0  0  0  0  0
   26.9178   15.6712    8.6088 H   0  0  0  0  0  0  0  0  0  0  0  0
   31.4773   13.5010    5.4523 H   0  0  0  0  0  0  0  0  0  0  0  0
   32.7161   13.5414    4.2909 H   0  0  0  0  0  0  0  0  0  0  0  0
   36.0111   15.8523    6.5270 H   0  0  0  0  0  0  0  0  0  0  0  0
   35.2515   14.8656    7.7907 H   0  0  0  0  0  0  0  0  0  0  0  0
   37.4329   13.7797    7.2216 H   0  0  0  0  0  0  0  0  0  0  0  0
   36.1520   12.7835    6.5490 H   0  0  0  0  0  0  0  0  0  0  0  0
   36.5806   13.9018    3.2062 H   0  0  0  0  0  0  0  0  0  0  0  0
   35.7799   12.7109    4.2422 H   0  0  0  0  0  0  0  0  0  0  0  0
   34.1881   14.5766    3.6818 H   0  0  0  0  0  0  0  0  0  0  0  0
   35.3656   15.7412    4.2398 H   0  0  0  0  0  0  0  0  0  0  0  0
  1  2  1  0
  2  3  2  0
  3  4  1  0
  4  5  2  0
  5  6  1  0
  6  7  1  0
  7  8  1  0
  8  9  1  0
  9 10  1  0
 10 11  1  0
 11 12  1  0
 11 13  1  0
 13 14  2  0
  6 15  2  0
 15 16  1  0
 16 17  1  0
 17 18  1  0
 18 19  2  0
 18 20  1  0
 20 21  1  0
 21 22  1  0
 22 23  1  0
 23 24  1  0
 24 25  1  0
 15  2  1  0
 25 20  1  0
 13  8  1  0
  1 26  1  0
  1 27  1  0
  1 28  1  0
  3 29  1  0
  4 30  1  0
  5 31  1  0
  8 32  1  0
  9 33  1  0
  9 34  1  0
 10 35  1  0
 10 36  1  0
 12 37  1  0
 12 38  1  0
 12 39  1  0
 17 40  1  0
 17 41  1  0
 21 42  1  0
 21 43  1  0
 22 44  1  0
 22 45  1  0
 24 46  1  0
 24 47  1  0
 25 48  1  0
 25 49  1  0
M  END
