LIG
     RDKit          3D

 37 37  0  0  0  0  0  0  0  0999 V2000
   35.0156    8.6081    4.3449 C   0  0  0  0  0  0  0  0  0  0  0  0
   34.8043   10.0697    4.1955 C   0  0  0  0  0  0  0  0  0  0  0  0
   35.5602   10.7525    3.4959 O   0  0  0  0  0  0  0  0  0  0  0  0
   33.7829   10.7221    4.7890 N   0  0  0  0  0  0  0  0  0  0  0  0
   32.9033   10.4642    5.8718 C   0  0  0  0  0  0  0  0  0  0  0  0
   32.6126    9.2009    6.3463 C   0  0  0  0  0  0  0  0  0  0  0  0
   31.6861    9.0158    7.3701 C   0  0  0  0  0  0  0  0  0  0  0  0
   31.0127   10.1002    7.9111 C   0  0  0  0  0  0  0  0  0  0  0  0
   31.2771   11.3981    7.4686 C   0  0  0  0  0  0  0  0  0  0  0  0
   30.5192   12.3885    8.1287 N   0  0  0  0  0  0  0  0  0  0  0  0
   29.6965   13.3423    7.5948 C   0  0  0  0  0  0  0  0  0  0  0  0
   29.5557   13.4490    6.1098 C   0  0  0  0  0  0  0  0  0  0  0  0
   29.0536   14.0736    8.3477 O   0  0  0  0  0  0  0  0  0  0  0  0
   32.3101   11.5913    6.5159 C   0  0  0  0  0  0  0  0  0  0  0  0
   33.0401   12.8596    6.1722 C   0  0  0  0  0  0  0  0  0  0  0  0
   33.1190   14.0064    7.0081 N   0  0  0  0  0  0  0  0  0  0  0  0
   33.7183   13.8909    8.5280 S   0  0  0  0  0  6  0  0  0  0  0  0
   32.4801   14.7292    9.4297 C   0  0  0  0  0  0  0  0  0  0  0  0
   34.9214   14.6680    8.4657 O   0  0  0  0  0  0  0  0  0  0  0  0
   33.6902   12.5360    8.9790 O   0  0  0  0  0  0  0  0  0  0  0  0
   34.1715    8.0678    3.9156 H   0  0  0  0  0  0  0  0  0  0  0  0
   35.9121    8.3147    3.7891 H   0  0  0  0  0  0  0  0  0  0  0  0
   35.1767    8.3451    5.3886 H   0  0  0  0  0  0  0  0  0  0  0  0
   33.8287   11.6621    4.4221 H   0  0  0  0  0  0  0  0  0  0  0  0
   33.0793    8.3236    5.9376 H   0  0  0  0  0  0  0  0  0  0  0  0
   31.4584    8.0144    7.7290 H   0  0  0  0  0  0  0  0  0  0  0  0
   30.2618    9.9099    8.6762 H   0  0  0  0  0  0  0  0  0  0  0  0
   30.1667   12.1591    9.0635 H   0  0  0  0  0  0  0  0  0  0  0  0
   30.4820   13.7707    5.6394 H   0  0  0  0  0  0  0  0  0  0  0  0
   29.2451   12.4855    5.7127 H   0  0  0  0  0  0  0  0  0  0  0  0
   28.7781   14.1807    5.8702 H   0  0  0  0  0  0  0  0  0  0  0  0
   34.1083   12.6409    6.0258 H   0  0  0  0  0  0  0  0  0  0  0  0
   32.6534   13.2074    5.2049 H   0  0  0  0  0  0  0  0  0  0  0  0
   33.7594   14.6788    6.5595 H   0  0  0  0  0  0  0  0  0  0  0  0
   32.7263   15.7836    9.4678 H   0  0  0  0  0  0  0  0  0  0  0  0
   32.4390   14.3270   10.4412 H   0  0  0  0  0  0  0  0  0  0  0  0
   31.5050   14.5889    8.9819 H   0  0  0  0  0  0  0  0  0  0  0  0
  1  2  1  0
  2  3  2  0
  2  4  1  0
  4  5  1  0
  5  6  2  0
  6  7  1  0
  7  8  2  0
  8  9  1  0
  9 10  1  0
 10 11  1  0
 11 12  1  0
 11 13  2  0
  9 14  2  0
 14 15  1  0
 15 16  1  0
 16 17  1  0
 17 18  1  0
 17 19  2  0
 17 20  2  0
 14  5  1  0
  1 21  1  0
  1 22  1  0
  1 23  1  0
  4 24  1  0
  6 25  1  0
  7 26  1  0
  8 27  1  0
 10 28  1  0
 12 29  1  0
 12 30  1  0
 12 31  1  0
 15 32  1  0
 15 33  1  0
 16 34  1  0
 18 35  1  0
 18 36  1  0
 18 37  1  0
M  END
