LIG
     RDKit          3D

 42 43  0  0  0  0  0  0  0  0999 V2000
   30.8480    8.3410    9.6370 C   0  0  0  0  0  0  0  0  0  0  0  0
   31.5630    9.4800    8.9430 C   0  0  0  0  0  0  0  0  0  0  0  0
   31.1650   10.7950    9.1290 C   0  0  0  0  0  0  0  0  0  0  0  0
   31.8380   11.8440    8.5230 C   0  0  0  0  0  0  0  0  0  0  0  0
   32.8900   11.5720    7.6690 C   0  0  0  0  0  0  0  0  0  0  0  0
   33.3940   12.4720    6.7660 O   0  0  0  0  0  0  0  0  0  0  0  0
   32.5070   13.2300    6.0470 C   0  0  0  0  0  0  0  0  0  0  0  0
   32.8430   14.5690    6.5820 C   0  0  0  0  0  0  0  0  0  0  0  0
   32.2450   15.0040    7.5510 O   0  0  0  0  0  0  0  0  0  0  0  0
   33.9260   15.1770    6.0590 N   0  0  0  0  0  0  0  0  0  0  0  0
   34.7260   15.9040    7.0650 C   0  0  0  0  0  0  0  0  0  0  0  0
   36.2000   15.5640    6.9400 C   0  0  0  0  0  0  0  0  0  0  0  0
   36.6530   15.7410    5.6230 O   0  0  0  0  0  0  0  0  0  0  0  0
   35.9790   14.7950    4.8070 C   0  0  0  0  0  0  0  0  0  0  0  0
   34.5050   15.1130    4.7140 C   0  0  0  0  0  0  0  0  0  0  0  0
   33.3470   10.2740    7.4930 C   0  0  0  0  0  0  0  0  0  0  0  0
   32.6580    9.2460    8.1260 C   0  0  0  0  0  0  0  0  0  0  0  0
   30.5793   11.1093    8.4281 N   0  0  0  0  0  0  0  0  0  0  0  0
   29.7090   12.5130    7.5840 C   0  0  0  0  0  0  0  0  0  0  0  0
   29.9180   12.6920    6.3980 O   0  0  0  0  0  0  0  0  0  0  0  0
   28.7130   13.3600    8.3510 C   0  0  0  0  0  0  0  0  0  0  0  0
   28.5830   14.6820    7.7450 C   0  0  0  0  0  0  0  0  0  0  0  0
   28.5580   15.7160    7.2730 N   0  0  0  0  0  0  0  0  0  0  0  0
   30.0378    8.7049   10.2757 H   0  0  0  0  0  0  0  0  0  0  0  0
   30.9332    8.4494   10.7219 H   0  0  0  0  0  0  0  0  0  0  0  0
   31.5460    7.7900   10.2735 H   0  0  0  0  0  0  0  0  0  0  0  0
   30.3000   11.0292    9.7579 H   0  0  0  0  0  0  0  0  0  0  0  0
   31.5059   12.8563    8.7290 H   0  0  0  0  0  0  0  0  0  0  0  0
   32.7431   13.2177    5.0064 H   0  0  0  0  0  0  0  0  0  0  0  0
   31.4880   13.0104    6.2650 H   0  0  0  0  0  0  0  0  0  0  0  0
   34.5883   16.9793    6.9576 H   0  0  0  0  0  0  0  0  0  0  0  0
   34.3433   15.5937    8.0417 H   0  0  0  0  0  0  0  0  0  0  0  0
   36.3660   14.5171    7.2259 H   0  0  0  0  0  0  0  0  0  0  0  0
   36.8019   16.1854    7.6195 H   0  0  0  0  0  0  0  0  0  0  0  0
   36.1258   13.8016    5.2500 H   0  0  0  0  0  0  0  0  0  0  0  0
   36.4467   14.7819    3.8117 H   0  0  0  0  0  0  0  0  0  0  0  0
   33.9756   14.3171    4.1895 H   0  0  0  0  0  0  0  0  0  0  0  0
   34.3492   16.0499    4.1849 H   0  0  0  0  0  0  0  0  0  0  0  0
   34.2022   10.1124    6.8795 H   0  0  0  0  0  0  0  0  0  0  0  0
   30.0551   10.9057    9.2697 H   0  0  0  0  0  0  0  0  0  0  0  0
   27.7467   12.8469    8.3528 H   0  0  0  0  0  0  0  0  0  0  0  0
   29.0466   13.4343    9.3901 H   0  0  0  0  0  0  0  0  0  0  0  0
  1  2  1  0
  2  3  4  0
  3  4  4  0
  4  5  4  0
  5  6  1  0
  6  7  1  0
  7  8  1  0
  8  9  2  0
  8 10  1  0
 10 11  1  0
 11 12  1  0
 12 13  1  0
 13 14  1  0
 14 15  1  0
  5 16  4  0
 16 17  4  0
 17 18  1  0
 18 19  1  0
 19 20  2  0
 19 21  1  0
 21 22  1  0
 22 23  3  0
 17  2  4  0
 15 10  1  0
  1 24  1  0
  1 25  1  0
  1 26  1  0
  3 27  1  0
  4 28  1  0
  7 29  1  0
  7 30  1  0
 11 31  1  0
 11 32  1  0
 12 33  1  0
 12 34  1  0
 14 35  1  0
 14 36  1  0
 15 37  1  0
 15 38  1  0
 16 39  1  0
 18 40  1  0
 21 41  1  0
 21 42  1  0
M  END
