LIG
     RDKit          3D

 42 44  0  0  0  0  0  0  0  0999 V2000
   28.5221   16.4201    8.4216 C   0  0  0  0  0  0  0  0  0  0  0  0
   28.7630   15.0427    8.5905 N   0  0  0  0  0  0  0  0  0  0  0  0
   28.1334   14.1109    7.7050 C   0  0  0  0  0  0  0  0  0  0  0  0
   28.5964   12.8062    8.2825 C   0  0  0  0  0  0  0  0  0  0  0  0
   30.0386   13.1168    8.6380 C   0  0  0  0  0  0  0  0  0  0  0  0
   30.7895   13.1470    7.4594 O   0  0  0  0  0  0  0  0  0  0  0  0
   31.4085   12.0005    7.1016 C   0  0  0  0  0  0  0  0  0  0  0  0
   31.2378   10.7019    7.5487 C   0  0  0  0  0  0  0  0  0  0  0  0
   32.0093    9.6875    6.9686 C   0  0  0  0  0  0  0  0  0  0  0  0
   32.9558    9.9839    5.9705 C   0  0  0  0  0  0  0  0  0  0  0  0
   33.1222   11.3013    5.5508 C   0  0  0  0  0  0  0  0  0  0  0  0
   34.0140   11.6798    4.5370 N   0  0  0  0  0  0  0  0  0  0  0  0
   34.3710   13.0039    4.2872 C   0  0  0  0  0  0  0  0  0  0  0  0
   34.1906   13.9606    5.0413 O   0  0  0  0  0  0  0  0  0  0  0  0
   34.9809   13.2289    2.9104 C   0  0  0  0  0  0  0  0  0  0  0  0
   34.1911   14.3099    2.1810 C   0  0  0  0  0  0  0  0  0  0  0  0
   34.4175   13.9494    0.7395 C   0  0  0  0  0  0  0  0  0  0  0  0
   34.4255   12.4393    0.7939 C   0  0  0  0  0  0  0  0  0  0  0  0
   34.9466   12.0624    2.0763 O   0  0  0  0  0  0  0  0  0  0  0  0
   32.3154   12.2729    6.1084 C   0  0  0  0  0  0  0  0  0  0  0  0
   29.9622   14.5559    9.0950 C   0  0  0  0  0  0  0  0  0  0  0  0
   30.8055   15.1960    9.7056 O   0  0  0  0  0  0  0  0  0  0  0  0
   29.2976   17.0313    8.8472 H   0  0  0  0  0  0  0  0  0  0  0  0
   28.5038   16.6375    7.3574 H   0  0  0  0  0  0  0  0  0  0  0  0
   27.5837   16.6046    8.9352 H   0  0  0  0  0  0  0  0  0  0  0  0
   27.0541   14.2343    7.7258 H   0  0  0  0  0  0  0  0  0  0  0  0
   28.5013   14.2677    6.6844 H   0  0  0  0  0  0  0  0  0  0  0  0
   28.4689   11.9890    7.5694 H   0  0  0  0  0  0  0  0  0  0  0  0
   28.0354   12.6179    9.1982 H   0  0  0  0  0  0  0  0  0  0  0  0
   30.5011   12.5097    9.3935 H   0  0  0  0  0  0  0  0  0  0  0  0
   30.5146   10.4389    8.3134 H   0  0  0  0  0  0  0  0  0  0  0  0
   31.8814    8.6573    7.2990 H   0  0  0  0  0  0  0  0  0  0  0  0
   33.5571    9.1819    5.5482 H   0  0  0  0  0  0  0  0  0  0  0  0
   34.4716   10.9719    3.9710 H   0  0  0  0  0  0  0  0  0  0  0  0
   36.0309   13.5149    3.0379 H   0  0  0  0  0  0  0  0  0  0  0  0
   33.1209   14.2485    2.4167 H   0  0  0  0  0  0  0  0  0  0  0  0
   34.5297   15.3198    2.4314 H   0  0  0  0  0  0  0  0  0  0  0  0
   35.3987   14.3162    0.4158 H   0  0  0  0  0  0  0  0  0  0  0  0
   33.6612   14.3498    0.0595 H   0  0  0  0  0  0  0  0  0  0  0  0
   35.0356   11.9934    0.0034 H   0  0  0  0  0  0  0  0  0  0  0  0
   33.4098   12.0362    0.7178 H   0  0  0  0  0  0  0  0  0  0  0  0
   32.3391   13.3021    5.7692 H   0  0  0  0  0  0  0  0  0  0  0  0
  1  2  1  0
  2  3  1  0
  3  4  1  0
  4  5  1  0
  5  6  1  0
  6  7  1  0
  7  8  2  0
  8  9  1  0
  9 10  2  0
 10 11  1  0
 11 12  1  0
 12 13  1  0
 13 14  2  0
 13 15  1  0
 15 16  1  0
 16 17  1  0
 17 18  1  0
 18 19  1  0
 11 20  2  0
  5 21  1  0
 21 22  2  0
 21  2  1  0
 20  7  1  0
 19 15  1  0
  1 23  1  0
  1 24  1  0
  1 25  1  0
  3 26  1  0
  3 27  1  0
  4 28  1  0
  4 29  1  0
  5 30  1  0
  8 31  1  0
  9 32  1  0
 10 33  1  0
 12 34  1  0
 15 35  1  0
 16 36  1  0
 16 37  1  0
 17 38  1  0
 17 39  1  0
 18 40  1  0
 18 41  1  0
 20 42  1  0
M  END
