LIG
     RDKit          3D

 41 42  0  0  0  0  0  0  0  0999 V2000
   35.0564    8.5968    4.0880 C   0  0  0  0  0  0  0  0  0  0  0  0
   35.2057   10.0717    4.2346 C   0  0  0  0  0  0  0  0  0  0  0  0
   36.1829   10.6725    3.7815 O   0  0  0  0  0  0  0  0  0  0  0  0
   34.2441   10.7977    4.8321 N   0  0  0  0  0  0  0  0  0  0  0  0
   33.1931   10.5052    5.6977 C   0  0  0  0  0  0  0  0  0  0  0  0
   32.8864    9.3262    6.3475 C   0  0  0  0  0  0  0  0  0  0  0  0
   31.8700    9.3055    7.3193 C   0  0  0  0  0  0  0  0  0  0  0  0
   31.4863    8.0931    8.0574 C   0  0  0  0  0  0  0  0  0  0  0  0
   31.2307   10.4581    7.6996 C   0  0  0  0  0  0  0  0  0  0  0  0
   31.5552   11.6039    7.0488 C   0  0  0  0  0  0  0  0  0  0  0  0
   31.0187   12.7224    7.5520 O   0  0  0  0  0  0  0  0  0  0  0  0
   31.8931   13.7956    7.4034 C   0  0  0  0  0  0  0  0  0  0  0  0
   33.3500   13.7329    7.8745 C   0  0  0  0  0  0  0  0  0  0  0  0
   33.5356   13.4536    9.0619 O   0  0  0  0  0  0  0  0  0  0  0  0
   34.4059   13.9496    6.9877 N   0  0  0  0  0  0  0  0  0  0  0  0
   35.7274   14.0071    7.6027 C   0  0  0  0  0  0  0  0  0  0  0  0
   36.8010   13.6107    6.5933 C   0  0  0  0  0  0  0  0  0  0  0  0
   36.8167   14.5421    5.5021 O   0  0  0  0  0  0  0  0  0  0  0  0
   35.5714   14.4794    4.8018 C   0  0  0  0  0  0  0  0  0  0  0  0
   34.3615   14.6984    5.7264 C   0  0  0  0  0  0  0  0  0  0  0  0
   32.4337   11.6069    5.9894 C   0  0  0  0  0  0  0  0  0  0  0  0
   35.6897    8.2543    3.2636 H   0  0  0  0  0  0  0  0  0  0  0  0
   34.0289    8.3336    3.8365 H   0  0  0  0  0  0  0  0  0  0  0  0
   35.3827    8.0980    5.0011 H   0  0  0  0  0  0  0  0  0  0  0  0
   34.4720   11.7785    4.7459 H   0  0  0  0  0  0  0  0  0  0  0  0
   33.4467    8.4232    6.1630 H   0  0  0  0  0  0  0  0  0  0  0  0
   31.5944    7.2749    7.3692 H   0  0  0  0  0  0  0  0  0  0  0  0
   32.0972    7.9549    8.9445 H   0  0  0  0  0  0  0  0  0  0  0  0
   30.4341    8.1159    8.3647 H   0  0  0  0  0  0  0  0  0  0  0  0
   30.4998   10.4725    8.5065 H   0  0  0  0  0  0  0  0  0  0  0  0
   31.8280   14.1158    6.3677 H   0  0  0  0  0  0  0  0  0  0  0  0
   31.4401   14.5366    8.0668 H   0  0  0  0  0  0  0  0  0  0  0  0
   35.8653   15.0386    7.9376 H   0  0  0  0  0  0  0  0  0  0  0  0
   35.7886   13.3780    8.4929 H   0  0  0  0  0  0  0  0  0  0  0  0
   36.6312   12.6058    6.1918 H   0  0  0  0  0  0  0  0  0  0  0  0
   37.7907   13.6083    7.0590 H   0  0  0  0  0  0  0  0  0  0  0  0
   35.5847   15.2460    4.0205 H   0  0  0  0  0  0  0  0  0  0  0  0
   35.5081   13.5114    4.2972 H   0  0  0  0  0  0  0  0  0  0  0  0
   34.3757   15.7308    6.0508 H   0  0  0  0  0  0  0  0  0  0  0  0
   33.4367   14.5194    5.1791 H   0  0  0  0  0  0  0  0  0  0  0  0
   32.5801   12.4976    5.3958 H   0  0  0  0  0  0  0  0  0  0  0  0
  1  2  1  0
  2  3  2  0
  2  4  1  0
  4  5  1  0
  5  6  2  0
  6  7  1  0
  7  8  1  0
  7  9  2  0
  9 10  1  0
 10 11  1  0
 11 12  1  0
 12 13  1  0
 13 14  2  0
 13 15  1  0
 15 16  1  0
 16 17  1  0
 17 18  1  0
 18 19  1  0
 19 20  1  0
 10 21  2  0
 21  5  1  0
 20 15  1  0
  1 22  1  0
  1 23  1  0
  1 24  1  0
  4 25  1  0
  6 26  1  0
  8 27  1  0
  8 28  1  0
  8 29  1  0
  9 30  1  0
 12 31  1  0
 12 32  1  0
 16 33  1  0
 16 34  1  0
 17 35  1  0
 17 36  1  0
 19 37  1  0
 19 38  1  0
 20 39  1  0
 20 40  1  0
 21 41  1  0
M  END
