LIG
     RDKit          3D

 34 35  0  0  0  0  0  0  0  0999 V2000
   28.5580   15.7160    7.2730 N   0  0  0  0  0  0  0  0  0  0  0  0
   28.5830   14.6820    7.7450 C   0  0  0  0  0  0  0  0  0  0  0  0
   28.7130   13.3600    8.3510 C   0  0  0  0  0  0  0  0  0  0  0  0
   29.7090   12.5130    7.5840 C   0  0  0  0  0  0  0  0  0  0  0  0
   29.9180   12.6920    6.3980 O   0  0  0  0  0  0  0  0  0  0  0  0
   30.3770   11.5810    8.3040 N   0  0  0  0  0  0  0  0  0  0  0  0
   31.3460   10.4150    7.4890 C   0  0  0  0  0  0  0  0  0  0  0  0
   31.7660    9.0980    7.4680 C   0  0  0  0  0  0  0  0  0  0  0  0
   32.7340    8.7720    6.5300 C   0  0  0  0  0  0  0  0  0  0  0  0
   33.2630    9.6380    5.6520 N   0  0  0  0  0  0  0  0  0  0  0  0
   32.8210   10.9050    5.6820 C   0  0  0  0  0  0  0  0  0  0  0  0
   33.3300   11.7430    4.6780 N   0  0  0  0  0  0  0  0  0  0  0  0
   33.5900   13.0680    4.7540 C   0  0  0  0  0  0  0  0  0  0  0  0
   33.4420   13.7460    5.7670 O   0  0  0  0  0  0  0  0  0  0  0  0
   34.1200   13.7080    3.4770 C   0  0  0  0  0  0  0  0  0  0  0  0
   33.0230   14.1560    2.5380 C   0  0  0  0  0  0  0  0  0  0  0  0
   33.7650   14.2490    1.2210 C   0  0  0  0  0  0  0  0  0  0  0  0
   34.7960   13.1450    1.3220 C   0  0  0  0  0  0  0  0  0  0  0  0
   34.9020   12.7780    2.7050 O   0  0  0  0  0  0  0  0  0  0  0  0
   31.8610   11.3420    6.6030 C   0  0  0  0  0  0  0  0  0  0  0  0
   27.7488   12.8352    8.3561 H   0  0  0  0  0  0  0  0  0  0  0  0
   29.0279   13.4390    9.3997 H   0  0  0  0  0  0  0  0  0  0  0  0
   30.4499   11.4476    9.2206 H   0  0  0  0  0  0  0  0  0  0  0  0
   31.3908    8.3333    8.1187 H   0  0  0  0  0  0  0  0  0  0  0  0
   33.1180    7.7532    6.4686 H   0  0  0  0  0  0  0  0  0  0  0  0
   33.5897   11.2514    3.8351 H   0  0  0  0  0  0  0  0  0  0  0  0
   33.1585   12.2313    3.0336 H   0  0  0  0  0  0  0  0  0  0  0  0
   32.6372   15.1430    2.8121 H   0  0  0  0  0  0  0  0  0  0  0  0
   32.1812   13.4626    2.5036 H   0  0  0  0  0  0  0  0  0  0  0  0
   33.0698   14.0396    0.3937 H   0  0  0  0  0  0  0  0  0  0  0  0
   34.2107   15.2364    1.0404 H   0  0  0  0  0  0  0  0  0  0  0  0
   34.5275   12.2622    0.7269 H   0  0  0  0  0  0  0  0  0  0  0  0
   35.7850   13.4928    0.9895 H   0  0  0  0  0  0  0  0  0  0  0  0
   31.5361   12.3648    6.6132 H   0  0  0  0  0  0  0  0  0  0  0  0
  1  2  3  0
  2  3  1  0
  3  4  1  0
  4  5  2  0
  4  6  1  0
  6  7  1  0
  7  8  4  0
  8  9  4  0
  9 10  4  0
 10 11  4  0
 11 12  1  0
 12 13  1  0
 13 14  2  0
 13 15  1  0
 15 16  1  0
 16 17  1  0
 17 18  1  0
 18 19  1  0
 11 20  4  0
 20  7  4  0
 19 15  1  0
  3 21  1  0
  3 22  1  0
  6 23  1  0
  8 24  1  0
  9 25  1  0
 12 26  1  0
 15 27  1  0
 16 28  1  0
 16 29  1  0
 17 30  1  0
 17 31  1  0
 18 32  1  0
 18 33  1  0
 20 34  1  0
M  END
