LIG
     RDKit          3D

 28 28  0  0  0  0  0  0  0  0999 V2000
   32.9163    9.2804    6.1972 C   0  0  0  0  0  0  0  0  0  0  0  0
   33.1775   10.6189    5.9646 C   0  0  0  0  0  0  0  0  0  0  0  0
   32.5052   11.5834    6.7154 C   0  0  0  0  0  0  0  0  0  0  0  0
   33.0358   12.8936    6.6554 N   0  0  0  0  0  0  0  0  0  0  0  0
   33.7867   13.3477    7.7446 C   0  0  0  0  0  0  0  0  0  0  0  0
   33.7017   12.9137    8.8939 O   0  0  0  0  0  0  0  0  0  0  0  0
   34.8069   14.4323    7.3629 C   0  0  0  0  0  0  0  0  0  0  0  0
   34.7144   14.8342    6.0003 O   0  0  0  0  0  0  0  0  0  0  0  0
   31.4773   11.1958    7.6049 C   0  0  0  0  0  0  0  0  0  0  0  0
   30.5772   12.0884    8.2170 N   0  0  0  0  0  0  0  0  0  0  0  0
   29.7769   12.8754    7.4041 C   0  0  0  0  0  0  0  0  0  0  0  0
   29.9594   13.0850    6.2066 O   0  0  0  0  0  0  0  0  0  0  0  0
   28.5559   13.3970    8.1049 C   0  0  0  0  0  0  0  0  0  0  0  0
   28.5605   14.8451    8.0999 C   0  0  0  0  0  0  0  0  0  0  0  0
   28.5295   15.9992    8.1718 N   0  0  0  0  0  0  0  0  0  0  0  0
   31.2434    9.8528    7.8589 C   0  0  0  0  0  0  0  0  0  0  0  0
   31.9782    8.9214    7.1642 C   0  0  0  0  0  0  0  0  0  0  0  0
   31.7928    7.6411    7.4552 F   0  0  0  0  0  0  0  0  0  0  0  0
   33.4827    8.5176    5.6770 H   0  0  0  0  0  0  0  0  0  0  0  0
   33.9719   10.8948    5.2764 H   0  0  0  0  0  0  0  0  0  0  0  0
   33.5191   13.1490    5.7943 H   0  0  0  0  0  0  0  0  0  0  0  0
   34.6263   15.2925    8.0084 H   0  0  0  0  0  0  0  0  0  0  0  0
   35.8129   14.0429    7.5400 H   0  0  0  0  0  0  0  0  0  0  0  0
   34.9937   15.7772    5.9566 H   0  0  0  0  0  0  0  0  0  0  0  0
   30.1198   11.7332    9.0583 H   0  0  0  0  0  0  0  0  0  0  0  0
   28.4942   13.0355    9.1338 H   0  0  0  0  0  0  0  0  0  0  0  0
   27.6811   13.0046    7.5760 H   0  0  0  0  0  0  0  0  0  0  0  0
   30.4909    9.5033    8.5574 H   0  0  0  0  0  0  0  0  0  0  0  0
  1  2  2  0
  2  3  1  0
  3  4  1  0
  4  5  1  0
  5  6  2  0
  5  7  1  0
  7  8  1  0
  3  9  2  0
  9 10  1  0
 10 11  1  0
 11 12  2  0
 11 13  1  0
 13 14  1  0
 14 15  3  0
  9 16  1  0
 16 17  2  0
 17 18  1  0
 17  1  1  0
  1 19  1  0
  2 20  1  0
  4 21  1  0
  7 22  1  0
  7 23  1  0
  8 24  1  0
 10 25  1  0
 13 26  1  0
 13 27  1  0
 16 28  1  0
M  END
