LIG
     RDKit          3D

 28 28  0  0  0  0  0  0  0  0999 V2000
   28.5580   15.7160    7.2730 N   0  0  0  0  0  0  0  0  0  0  0  0
   28.5830   14.6820    7.7450 C   0  0  0  0  0  0  0  0  0  0  0  0
   28.7130   13.3600    8.3510 C   0  0  0  0  0  0  0  0  0  0  0  0
   29.7090   12.5130    7.5840 C   0  0  0  0  0  0  0  0  0  0  0  0
   29.9180   12.6920    6.3980 O   0  0  0  0  0  0  0  0  0  0  0  0
   30.3770   11.5810    8.3040 N   0  0  0  0  0  0  0  0  0  0  0  0
   31.2980   10.7060    7.7380 C   0  0  0  0  0  0  0  0  0  0  0  0
   31.3250    9.3200    8.0160 C   0  0  0  0  0  0  0  0  0  0  0  0
   30.4340    8.4960    8.8860 C   0  0  0  0  0  0  0  0  0  0  0  0
   33.9640    9.4730    5.7020 C   0  0  0  0  0  0  0  0  0  0  0  0
   32.8910    9.7790    6.6350 C   0  0  0  0  0  0  0  0  0  0  0  0
   32.3120   10.9580    6.8650 C   0  0  0  0  0  0  0  0  0  0  0  0
   32.7600   12.2430    6.2540 N   0  0  0  0  0  0  0  0  0  0  0  0
   34.4250   13.2280    7.6390 C   0  0  0  0  0  0  0  0  0  0  0  0
   34.9120   12.5690    8.5560 O   0  0  0  0  0  0  0  0  0  0  0  0
   34.6680   14.7180    7.5670 C   0  0  0  0  0  0  0  0  0  0  0  0
   35.0470   15.1300    6.2680 O   0  0  0  0  0  0  0  0  0  0  0  0
   29.0614   13.4584    9.3822 H   0  0  0  0  0  0  0  0  0  0  0  0
   27.7546   12.8360    8.3587 H   0  0  0  0  0  0  0  0  0  0  0  0
   30.2611   11.5267    9.2811 H   0  0  0  0  0  0  0  0  0  0  0  0
   32.1534    8.6820    7.5618 H   0  0  0  0  0  0  0  0  0  0  0  0
   31.6896    7.5989    7.8765 H   0  0  0  0  0  0  0  0  0  0  0  0
   33.1841    8.0232    6.4971 H   0  0  0  0  0  0  0  0  0  0  0  0
   32.5362    8.8346    7.1714 H   0  0  0  0  0  0  0  0  0  0  0  0
   32.7086   12.8805    5.7892 H   0  0  0  0  0  0  0  0  0  0  0  0
   33.7609   15.2673    7.8444 H   0  0  0  0  0  0  0  0  0  0  0  0
   35.4737   14.9830    8.2614 H   0  0  0  0  0  0  0  0  0  0  0  0
   34.8049   16.0771    6.2023 H   0  0  0  0  0  0  0  0  0  0  0  0
  1  2  3  0
  2  3  1  0
  3  4  1  0
  4  5  2  0
  4  6  1  0
  6  7  1  0
  7  8  4  0
  8  9  4  0
  9 10  4  0
 10 11  4  0
 11 12  4  0
 12 13  1  0
 13 14  1  0
 14 15  2  0
 14 16  1  0
 16 17  1  0
 12  7  4  0
  3 18  1  0
  3 19  1  0
  6 20  1  0
  8 21  1  0
  9 22  1  0
 10 23  1  0
 11 24  1  0
 13 25  1  0
 16 26  1  0
 16 27  1  0
 17 28  1  0
M  END
