LIG
     RDKit          3D

 47 48  0  0  0  0  0  0  0  0999 V2000
   -2.2708    2.2306    2.2827 C   0  0  0  0  0  0  0  0  0  0  0  0
   -1.0037    1.6535    1.7092 C   0  0  0  0  0  0  0  0  0  0  0  0
    0.2255    2.1109    2.2132 C   0  0  0  0  0  0  0  0  0  0  0  0
    1.4422    1.6164    1.7258 C   0  0  0  0  0  0  0  0  0  0  0  0
    2.7387    2.1268    2.2917 C   0  0  0  0  0  0  0  0  0  0  0  0
    1.4315    0.6437    0.7165 C   0  0  0  0  0  0  0  0  0  0  0  0
    2.6647    0.2166    0.2973 O   0  0  0  0  0  0  0  0  0  0  0  0
    2.7101   -0.7922   -0.7050 C   0  0  0  0  0  0  0  0  0  0  0  0
    4.1657   -1.1173   -1.0506 C   0  0  0  0  0  0  0  0  0  0  0  0
    4.6149   -2.2453   -0.8267 O   0  0  0  0  0  0  0  0  0  0  0  0
    4.9359   -0.1212   -1.6541 N   0  0  0  0  0  0  0  0  0  0  0  0
    6.3533   -0.3767   -1.8451 C   0  0  0  0  0  0  0  0  0  0  0  0
    4.5177    1.2694   -1.7457 C   0  0  0  0  0  0  0  0  0  0  0  0
    0.2095    0.1844    0.2109 C   0  0  0  0  0  0  0  0  0  0  0  0
   -1.0111    0.6770    0.6935 C   0  0  0  0  0  0  0  0  0  0  0  0
   -2.2533    0.2292    0.1953 N   0  0  0  0  0  0  0  0  0  0  0  0
   -2.5122   -0.7243   -0.7754 C   0  0  0  0  0  0  0  0  0  0  0  0
   -1.6903   -1.3665   -1.4210 O   0  0  0  0  0  0  0  0  0  0  0  0
   -4.0245   -0.8689   -1.0208 C   0  0  0  0  0  0  0  0  0  0  0  0
   -4.4343   -2.3124   -1.2664 C   0  0  0  0  0  0  0  0  0  0  0  0
   -5.8300   -2.3556   -0.6990 C   0  0  0  0  0  0  0  0  0  0  0  0
   -5.7091   -1.4317    0.4898 C   0  0  0  0  0  0  0  0  0  0  0  0
   -4.8014   -0.3917    0.0988 O   0  0  0  0  0  0  0  0  0  0  0  0
   -2.0620    2.9808    3.0529 H   0  0  0  0  0  0  0  0  0  0  0  0
   -2.8540    2.7228    1.4976 H   0  0  0  0  0  0  0  0  0  0  0  0
   -2.8707    1.4420    2.7482 H   0  0  0  0  0  0  0  0  0  0  0  0
    0.2361    2.8640    2.9996 H   0  0  0  0  0  0  0  0  0  0  0  0
    3.3408    2.5894    1.5029 H   0  0  0  0  0  0  0  0  0  0  0  0
    3.3030    1.3063    2.7468 H   0  0  0  0  0  0  0  0  0  0  0  0
    2.5703    2.8830    3.0658 H   0  0  0  0  0  0  0  0  0  0  0  0
    2.2473   -1.7133   -0.3297 H   0  0  0  0  0  0  0  0  0  0  0  0
    2.2034   -0.4789   -1.6252 H   0  0  0  0  0  0  0  0  0  0  0  0
    6.9024    0.0517   -1.0013 H   0  0  0  0  0  0  0  0  0  0  0  0
    6.5695   -1.4469   -1.9021 H   0  0  0  0  0  0  0  0  0  0  0  0
    6.6826    0.0944   -2.7759 H   0  0  0  0  0  0  0  0  0  0  0  0
    3.4417    1.3584   -1.9043 H   0  0  0  0  0  0  0  0  0  0  0  0
    5.0247    1.7465   -2.5897 H   0  0  0  0  0  0  0  0  0  0  0  0
    4.7921    1.7793   -0.8177 H   0  0  0  0  0  0  0  0  0  0  0  0
    0.2058   -0.5688   -0.5653 H   0  0  0  0  0  0  0  0  0  0  0  0
   -3.0974    0.6037    0.6208 H   0  0  0  0  0  0  0  0  0  0  0  0
   -4.2822   -0.2389   -1.8802 H   0  0  0  0  0  0  0  0  0  0  0  0
   -3.7867   -3.0066   -0.7167 H   0  0  0  0  0  0  0  0  0  0  0  0
   -4.3914   -2.5872   -2.3245 H   0  0  0  0  0  0  0  0  0  0  0  0
   -6.1634   -3.3607   -0.4289 H   0  0  0  0  0  0  0  0  0  0  0  0
   -6.5369   -1.9398   -1.4267 H   0  0  0  0  0  0  0  0  0  0  0  0
   -6.6665   -0.9935    0.7842 H   0  0  0  0  0  0  0  0  0  0  0  0
   -5.2775   -1.9478    1.3543 H   0  0  0  0  0  0  0  0  0  0  0  0
  1  2  1  0
  2  3  2  0
  3  4  1  0
  4  5  1  0
  4  6  2  0
  6  7  1  0
  7  8  1  0
  8  9  1  0
  9 10  2  0
  9 11  1  0
 11 12  1  0
 11 13  1  0
  6 14  1  0
 14 15  2  0
 15 16  1  0
 16 17  1  0
 17 18  2  0
 17 19  1  0
 19 20  1  0
 20 21  1  0
 21 22  1  0
 22 23  1  0
 15  2  1  0
 23 19  1  0
  1 24  1  0
  1 25  1  0
  1 26  1  0
  3 27  1  0
  5 28  1  0
  5 29  1  0
  5 30  1  0
  8 31  1  0
  8 32  1  0
 12 33  1  0
 12 34  1  0
 12 35  1  0
 13 36  1  0
 13 37  1  0
 13 38  1  0
 14 39  1  0
 16 40  1  0
 19 41  1  0
 20 42  1  0
 20 43  1  0
 21 44  1  0
 21 45  1  0
 22 46  1  0
 22 47  1  0
M  END
