LIG
     RDKit          3D

 44 45  0  0  0  0  0  0  0  0999 V2000
   28.5336   12.4175    6.5655 C   0  0  0  0  0  0  0  0  0  0  0  0
   29.9711   12.0194    6.5352 C   0  0  0  0  0  0  0  0  0  0  0  0
   30.9171   12.6682    5.7183 C   0  0  0  0  0  0  0  0  0  0  0  0
   32.2684   12.2821    5.7695 C   0  0  0  0  0  0  0  0  0  0  0  0
   33.2437   12.6941    4.8595 N   0  0  0  0  0  0  0  0  0  0  0  0
   33.1567   13.8396    4.1119 C   0  0  0  0  0  0  0  0  0  0  0  0
   32.2612   14.6738    4.2368 O   0  0  0  0  0  0  0  0  0  0  0  0
   34.3152   14.0322    3.1366 C   0  0  0  0  0  0  0  0  0  0  0  0
   33.8367   14.7539    1.8859 C   0  0  0  0  0  0  0  0  0  0  0  0
   34.7210   14.1735    0.8167 C   0  0  0  0  0  0  0  0  0  0  0  0
   34.8763   12.7446    1.2804 C   0  0  0  0  0  0  0  0  0  0  0  0
   34.8822   12.7809    2.7142 O   0  0  0  0  0  0  0  0  0  0  0  0
   32.6760   11.5096    6.8268 C   0  0  0  0  0  0  0  0  0  0  0  0
   31.7287   11.3928    7.8261 C   0  0  0  0  0  0  0  0  0  0  0  0
   31.8818   12.4654    8.7464 O   0  0  0  0  0  0  0  0  0  0  0  0
   30.7466   13.3415    8.8837 C   0  0  0  0  0  0  0  0  0  0  0  0
   30.8837   14.2772   10.0416 C   0  0  0  0  0  0  0  0  0  0  0  0
   31.9756   14.4847   10.5636 O   0  0  0  0  0  0  0  0  0  0  0  0
   29.7187   14.8882   10.5002 N   0  0  0  0  0  0  0  0  0  0  0  0
   28.4156   14.5795    9.9553 C   0  0  0  0  0  0  0  0  0  0  0  0
   29.8054   15.2689   11.8779 C   0  0  0  0  0  0  0  0  0  0  0  0
   30.4366   11.1266    7.4800 C   0  0  0  0  0  0  0  0  0  0  0  0
   28.2636   12.9812    5.6667 H   0  0  0  0  0  0  0  0  0  0  0  0
   27.8598   11.5620    6.6410 H   0  0  0  0  0  0  0  0  0  0  0  0
   28.3241   13.0706    7.4118 H   0  0  0  0  0  0  0  0  0  0  0  0
   30.5599   13.3797    4.9796 H   0  0  0  0  0  0  0  0  0  0  0  0
   34.1519   12.2349    4.8645 H   0  0  0  0  0  0  0  0  0  0  0  0
   35.1026   14.5993    3.6458 H   0  0  0  0  0  0  0  0  0  0  0  0
   32.7884   14.5200    1.6613 H   0  0  0  0  0  0  0  0  0  0  0  0
   33.9211   15.8415    1.9711 H   0  0  0  0  0  0  0  0  0  0  0  0
   35.6944   14.6779    0.8296 H   0  0  0  0  0  0  0  0  0  0  0  0
   34.3056   14.2545   -0.1910 H   0  0  0  0  0  0  0  0  0  0  0  0
   34.0269   12.1293    0.9641 H   0  0  0  0  0  0  0  0  0  0  0  0
   35.7983   12.2807    0.9196 H   0  0  0  0  0  0  0  0  0  0  0  0
   33.7345   11.4294    7.0357 H   0  0  0  0  0  0  0  0  0  0  0  0
   29.8386   12.7706    9.0542 H   0  0  0  0  0  0  0  0  0  0  0  0
   30.6741   13.9933    8.0097 H   0  0  0  0  0  0  0  0  0  0  0  0
   28.1090   13.5851   10.2818 H   0  0  0  0  0  0  0  0  0  0  0  0
   28.4553   14.6234    8.8660 H   0  0  0  0  0  0  0  0  0  0  0  0
   27.6718   15.3008   10.2735 H   0  0  0  0  0  0  0  0  0  0  0  0
   30.6061   16.0054   11.9888 H   0  0  0  0  0  0  0  0  0  0  0  0
   28.8678   15.6736   12.2473 H   0  0  0  0  0  0  0  0  0  0  0  0
   30.0155   14.3794   12.4705 H   0  0  0  0  0  0  0  0  0  0  0  0
   29.7605   10.6912    8.2098 H   0  0  0  0  0  0  0  0  0  0  0  0
  1  2  1  0
  2  3  2  0
  3  4  1  0
  4  5  1  0
  5  6  1  0
  6  7  2  0
  6  8  1  0
  8  9  1  0
  9 10  1  0
 10 11  1  0
 11 12  1  0
  4 13  2  0
 13 14  1  0
 14 15  1  0
 15 16  1  0
 16 17  1  0
 17 18  2  0
 17 19  1  0
 19 20  1  0
 19 21  1  0
 14 22  2  0
 22  2  1  0
 12  8  1  0
  1 23  1  0
  1 24  1  0
  1 25  1  0
  3 26  1  0
  5 27  1  0
  8 28  1  0
  9 29  1  0
  9 30  1  0
 10 31  1  0
 10 32  1  0
 11 33  1  0
 11 34  1  0
 13 35  1  0
 16 36  1  0
 16 37  1  0
 20 38  1  0
 20 39  1  0
 20 40  1  0
 21 41  1  0
 21 42  1  0
 21 43  1  0
 22 44  1  0
M  END
