LIG
     RDKit          3D

 34 34  0  0  0  0  0  0  0  0999 V2000
   30.8201   15.6863   11.3656 C   0  0  0  0  0  0  0  0  0  0  0  0
   29.8124   14.9878   10.5838 N   0  0  0  0  0  0  0  0  0  0  0  0
   28.5890   14.6628   11.2620 C   0  0  0  0  0  0  0  0  0  0  0  0
   30.3000   14.1140    9.6174 C   0  0  0  0  0  0  0  0  0  0  0  0
   31.5168   14.0240    9.4677 O   0  0  0  0  0  0  0  0  0  0  0  0
   29.2899   13.3857    8.6878 C   0  0  0  0  0  0  0  0  0  0  0  0
   29.4246   12.0004    8.4266 O   0  0  0  0  0  0  0  0  0  0  0  0
   30.5249   11.5459    7.7709 C   0  0  0  0  0  0  0  0  0  0  0  0
   30.6962   10.1622    7.7295 C   0  0  0  0  0  0  0  0  0  0  0  0
   31.7657    9.5955    7.0291 C   0  0  0  0  0  0  0  0  0  0  0  0
   32.7251   10.4105    6.4356 C   0  0  0  0  0  0  0  0  0  0  0  0
   32.6247   11.7816    6.6191 C   0  0  0  0  0  0  0  0  0  0  0  0
   33.7257   12.6199    6.3877 N   0  0  0  0  0  0  0  0  0  0  0  0
   34.2794   13.3011    7.4750 C   0  0  0  0  0  0  0  0  0  0  0  0
   33.9904   13.0680    8.6526 O   0  0  0  0  0  0  0  0  0  0  0  0
   35.3263   14.3432    7.1527 C   0  0  0  0  0  0  0  0  0  0  0  0
   35.5824   14.6172    5.3827 S   0  0  0  0  0  0  0  0  0  0  0  0
   31.4823   12.3472    7.1796 C   0  0  0  0  0  0  0  0  0  0  0  0
   30.3968   16.5624   11.8567 H   0  0  0  0  0  0  0  0  0  0  0  0
   31.1951   15.0077   12.1215 H   0  0  0  0  0  0  0  0  0  0  0  0
   31.6540   16.0161   10.7410 H   0  0  0  0  0  0  0  0  0  0  0  0
   28.5221   15.2241   12.1945 H   0  0  0  0  0  0  0  0  0  0  0  0
   28.5441   13.6084   11.5109 H   0  0  0  0  0  0  0  0  0  0  0  0
   27.7492   14.8996   10.6070 H   0  0  0  0  0  0  0  0  0  0  0  0
   29.2674   13.9410    7.7402 H   0  0  0  0  0  0  0  0  0  0  0  0
   28.2793   13.5009    9.0830 H   0  0  0  0  0  0  0  0  0  0  0  0
   29.9803    9.5078    8.2218 H   0  0  0  0  0  0  0  0  0  0  0  0
   31.8756    8.5140    7.0047 H   0  0  0  0  0  0  0  0  0  0  0  0
   33.5993    9.9621    5.9736 H   0  0  0  0  0  0  0  0  0  0  0  0
   34.4497   12.2954    5.7544 H   0  0  0  0  0  0  0  0  0  0  0  0
   36.2712   14.0266    7.6021 H   0  0  0  0  0  0  0  0  0  0  0  0
   35.0062   15.2811    7.6076 H   0  0  0  0  0  0  0  0  0  0  0  0
   35.5739   15.9656    5.4330 H   0  0  0  0  0  0  0  0  0  0  0  0
   31.4246   13.4264    7.2107 H   0  0  0  0  0  0  0  0  0  0  0  0
  1  2  1  0
  2  3  1  0
  2  4  1  0
  4  5  2  0
  4  6  1  0
  6  7  1  0
  7  8  1  0
  8  9  2  0
  9 10  1  0
 10 11  2  0
 11 12  1  0
 12 13  1  0
 13 14  1  0
 14 15  2  0
 14 16  1  0
 16 17  1  0
 12 18  2  0
 18  8  1  0
  1 19  1  0
  1 20  1  0
  1 21  1  0
  3 22  1  0
  3 23  1  0
  3 24  1  0
  6 25  1  0
  6 26  1  0
  9 27  1  0
 10 28  1  0
 11 29  1  0
 13 30  1  0
 16 31  1  0
 16 32  1  0
 17 33  1  0
 18 34  1  0
M  END
