LIG
     RDKit          3D

 34 34  0  0  0  0  0  0  0  0999 V2000
   34.0799   12.3427    3.0756 C   0  0  0  0  0  0  0  0  0  0  0  0
   33.0798   13.0778    3.8365 N   0  0  0  0  0  0  0  0  0  0  0  0
   31.7267   13.0473    3.3039 C   0  0  0  0  0  0  0  0  0  0  0  0
   33.3858   14.0412    4.7936 C   0  0  0  0  0  0  0  0  0  0  0  0
   32.5302   14.7990    5.2642 O   0  0  0  0  0  0  0  0  0  0  0  0
   34.8454   14.1294    5.2738 C   0  0  0  0  0  0  0  0  0  0  0  0
   35.0470   15.1300    6.2680 O   0  0  0  0  0  0  0  0  0  0  0  0
   34.6680   14.7180    7.5670 C   0  0  0  0  0  0  0  0  0  0  0  0
   34.4250   13.2280    7.6390 C   0  0  0  0  0  0  0  0  0  0  0  0
   34.9120   12.5690    8.5560 O   0  0  0  0  0  0  0  0  0  0  0  0
   33.6520   12.7090    6.6590 N   0  0  0  0  0  0  0  0  0  0  0  0
   32.7080   11.6650    6.8730 C   0  0  0  0  0  0  0  0  0  0  0  0
   31.5450   11.9340    7.6020 C   0  0  0  0  0  0  0  0  0  0  0  0
   30.7220   10.8640    7.9390 C   0  0  0  0  0  0  0  0  0  0  0  0
   29.4280   11.6110    9.1450 O   0  0  0  0  0  0  0  0  0  0  0  0
   31.0170    9.5590    7.5720 C   0  0  0  0  0  0  0  0  0  0  0  0
   32.1560    9.3390    6.8090 C   0  0  0  0  0  0  0  0  0  0  0  0
   33.0110   10.3720    6.4380 C   0  0  0  0  0  0  0  0  0  0  0  0
   34.1980   10.0910    5.5530 F   0  0  0  0  0  0  0  0  0  0  0  0
   33.6989   11.3414    2.8516 H   0  0  0  0  0  0  0  0  0  0  0  0
   34.2733   12.8812    2.1434 H   0  0  0  0  0  0  0  0  0  0  0  0
   35.0177   12.2384    3.6237 H   0  0  0  0  0  0  0  0  0  0  0  0
   31.4444   12.0130    3.0849 H   0  0  0  0  0  0  0  0  0  0  0  0
   31.0045   13.4632    4.0118 H   0  0  0  0  0  0  0  0  0  0  0  0
   31.6997   13.6393    2.3843 H   0  0  0  0  0  0  0  0  0  0  0  0
   35.1831   13.1565    5.6492 H   0  0  0  0  0  0  0  0  0  0  0  0
   35.4584   14.4122    4.4130 H   0  0  0  0  0  0  0  0  0  0  0  0
   35.4193   14.9748    8.3258 H   0  0  0  0  0  0  0  0  0  0  0  0
   33.7368   15.2397    7.8195 H   0  0  0  0  0  0  0  0  0  0  0  0
   33.7558   13.0515    5.7470 H   0  0  0  0  0  0  0  0  0  0  0  0
   31.2927   12.9344    7.8902 H   0  0  0  0  0  0  0  0  0  0  0  0
   29.6697   12.4717    8.9260 H   0  0  0  0  0  0  0  0  0  0  0  0
   30.3808    8.7428    7.8744 H   0  0  0  0  0  0  0  0  0  0  0  0
   32.3982    8.3180    6.4782 H   0  0  0  0  0  0  0  0  0  0  0  0
  1  2  1  0
  2  3  1  0
  2  4  1  0
  4  5  2  0
  4  6  1  0
  6  7  1  0
  7  8  1  0
  8  9  1  0
  9 10  2  0
  9 11  1  0
 11 12  1  0
 12 13  4  0
 13 14  4  0
 14 15  1  0
 14 16  4  0
 16 17  4  0
 17 18  4  0
 18 19  1  0
 18 12  4  0
  1 20  1  0
  1 21  1  0
  1 22  1  0
  3 23  1  0
  3 24  1  0
  3 25  1  0
  6 26  1  0
  6 27  1  0
  8 28  1  0
  8 29  1  0
 11 30  1  0
 13 31  1  0
 15 32  1  0
 16 33  1  0
 17 34  1  0
M  END
