LIG
     RDKit          3D

 44 45  0  0  0  0  0  0  0  0999 V2000
   34.4427   14.3814    5.6773 C   0  0  0  0  0  0  0  0  0  0  0  0
   33.6641   13.2856    6.3205 C   0  0  0  0  0  0  0  0  0  0  0  0
   33.6187   13.3686    7.6847 C   0  0  0  0  0  0  0  0  0  0  0  0
   32.6250   12.7076    8.3304 C   0  0  0  0  0  0  0  0  0  0  0  0
   31.6884   11.9528    7.6618 C   0  0  0  0  0  0  0  0  0  0  0  0
   30.5122   11.6409    8.2811 O   0  0  0  0  0  0  0  0  0  0  0  0
   29.7218   12.8262    8.4686 C   0  0  0  0  0  0  0  0  0  0  0  0
   30.0377   13.8253    9.6243 C   0  0  0  0  0  0  0  0  0  0  0  0
   31.1565   14.1256   10.0391 O   0  0  0  0  0  0  0  0  0  0  0  0
   28.9422   14.4272   10.2393 N   0  0  0  0  0  0  0  0  0  0  0  0
   28.0492   15.1380    9.3554 C   0  0  0  0  0  0  0  0  0  0  0  0
   29.2940   14.9796   11.5377 C   0  0  0  0  0  0  0  0  0  0  0  0
   31.9632   11.5727    6.3604 C   0  0  0  0  0  0  0  0  0  0  0  0
   32.9664   12.2578    5.6685 C   0  0  0  0  0  0  0  0  0  0  0  0
   33.1992   12.0126    4.3102 N   0  0  0  0  0  0  0  0  0  0  0  0
   34.4344   12.2296    3.7402 C   0  0  0  0  0  0  0  0  0  0  0  0
   35.4896   12.2823    4.3619 O   0  0  0  0  0  0  0  0  0  0  0  0
   34.3941   12.5171    2.2535 C   0  0  0  0  0  0  0  0  0  0  0  0
   34.1149   13.9842    1.9788 C   0  0  0  0  0  0  0  0  0  0  0  0
   33.6975   13.9353    0.5355 C   0  0  0  0  0  0  0  0  0  0  0  0
   32.9341   12.6288    0.4685 C   0  0  0  0  0  0  0  0  0  0  0  0
   33.3461   11.8150    1.5794 O   0  0  0  0  0  0  0  0  0  0  0  0
   35.5092   14.1503    5.6174 H   0  0  0  0  0  0  0  0  0  0  0  0
   34.0452   14.6534    4.6992 H   0  0  0  0  0  0  0  0  0  0  0  0
   34.3936   15.3001    6.2690 H   0  0  0  0  0  0  0  0  0  0  0  0
   34.2688   14.0475    8.2335 H   0  0  0  0  0  0  0  0  0  0  0  0
   32.6085   12.9148    9.3786 H   0  0  0  0  0  0  0  0  0  0  0  0
   29.6952   13.4081    7.5357 H   0  0  0  0  0  0  0  0  0  0  0  0
   28.6999   12.4670    8.6183 H   0  0  0  0  0  0  0  0  0  0  0  0
   27.1826   15.4967    9.8987 H   0  0  0  0  0  0  0  0  0  0  0  0
   27.6955   14.4788    8.5583 H   0  0  0  0  0  0  0  0  0  0  0  0
   28.5828   15.9627    8.8744 H   0  0  0  0  0  0  0  0  0  0  0  0
   29.9821   15.8223   11.4414 H   0  0  0  0  0  0  0  0  0  0  0  0
   29.8009   14.2115   12.1267 H   0  0  0  0  0  0  0  0  0  0  0  0
   28.3964   15.2366   12.0874 H   0  0  0  0  0  0  0  0  0  0  0  0
   31.3642   10.7983    5.9104 H   0  0  0  0  0  0  0  0  0  0  0  0
   32.5813   11.4373    3.7580 H   0  0  0  0  0  0  0  0  0  0  0  0
   35.3448   12.1956    1.8107 H   0  0  0  0  0  0  0  0  0  0  0  0
   34.9826   14.6253    2.1584 H   0  0  0  0  0  0  0  0  0  0  0  0
   33.2799   14.3550    2.5850 H   0  0  0  0  0  0  0  0  0  0  0  0
   33.1000   14.7946    0.2191 H   0  0  0  0  0  0  0  0  0  0  0  0
   34.5814   13.8842   -0.1113 H   0  0  0  0  0  0  0  0  0  0  0  0
   33.1187   12.0902   -0.4658 H   0  0  0  0  0  0  0  0  0  0  0  0
   31.8559   12.7936    0.5638 H   0  0  0  0  0  0  0  0  0  0  0  0
  1  2  1  0
  2  3  2  0
  3  4  1  0
  4  5  2  0
  5  6  1  0
  6  7  1  0
  7  8  1  0
  8  9  2  0
  8 10  1  0
 10 11  1  0
 10 12  1  0
  5 13  1  0
 13 14  2  0
 14 15  1  0
 15 16  1  0
 16 17  2  0
 16 18  1  0
 18 19  1  0
 19 20  1  0
 20 21  1  0
 21 22  1  0
 14  2  1  0
 22 18  1  0
  1 23  1  0
  1 24  1  0
  1 25  1  0
  3 26  1  0
  4 27  1  0
  7 28  1  0
  7 29  1  0
 11 30  1  0
 11 31  1  0
 11 32  1  0
 12 33  1  0
 12 34  1  0
 12 35  1  0
 13 36  1  0
 15 37  1  0
 18 38  1  0
 19 39  1  0
 19 40  1  0
 20 41  1  0
 20 42  1  0
 21 43  1  0
 21 44  1  0
M  END
