LIG
     RDKit          3D

 48 49  0  0  0  0  0  0  0  0999 V2000
   33.7833    9.2736    5.7829 C   0  0  0  0  0  0  0  0  0  0  0  0
   32.6407    9.9132    6.5155 C   0  0  0  0  0  0  0  0  0  0  0  0
   31.8562    9.2047    7.4327 C   0  0  0  0  0  0  0  0  0  0  0  0
   30.8257    9.8440    8.1281 C   0  0  0  0  0  0  0  0  0  0  0  0
   30.5485   11.1876    7.8901 C   0  0  0  0  0  0  0  0  0  0  0  0
   29.4937   11.7396    8.5422 O   0  0  0  0  0  0  0  0  0  0  0  0
   29.3638   13.1493    8.6403 C   0  0  0  0  0  0  0  0  0  0  0  0
   30.3705   13.9060    9.5431 C   0  0  0  0  0  0  0  0  0  0  0  0
   31.5851   13.7263    9.4666 O   0  0  0  0  0  0  0  0  0  0  0  0
   29.8714   14.8633   10.4303 N   0  0  0  0  0  0  0  0  0  0  0  0
   28.5743   14.6676   11.0245 C   0  0  0  0  0  0  0  0  0  0  0  0
   30.8591   15.5648   11.2340 C   0  0  0  0  0  0  0  0  0  0  0  0
   31.2808   11.8634    6.9360 C   0  0  0  0  0  0  0  0  0  0  0  0
   32.3157   11.2396    6.2449 C   0  0  0  0  0  0  0  0  0  0  0  0
   33.0322   11.8170    5.2345 O   0  0  0  0  0  0  0  0  0  0  0  0
   32.7867   13.1775    4.9232 C   0  0  0  0  0  0  0  0  0  0  0  0
   33.5050   13.9951    5.9643 C   0  0  0  0  0  0  0  0  0  0  0  0
   33.1305   13.9489    7.1382 O   0  0  0  0  0  0  0  0  0  0  0  0
   34.5941   14.7479    5.6032 N   0  0  0  0  0  0  0  0  0  0  0  0
   35.5635   14.9222    6.6756 C   0  0  0  0  0  0  0  0  0  0  0  0
   36.5844   13.7900    6.5356 C   0  0  0  0  0  0  0  0  0  0  0  0
   37.2887   13.9448    5.2845 O   0  0  0  0  0  0  0  0  0  0  0  0
   36.3695   13.7972    4.1843 C   0  0  0  0  0  0  0  0  0  0  0  0
   35.2258   14.8132    4.2794 C   0  0  0  0  0  0  0  0  0  0  0  0
   34.1549    8.4011    6.3148 H   0  0  0  0  0  0  0  0  0  0  0  0
   34.6259    9.9634    5.6735 H   0  0  0  0  0  0  0  0  0  0  0  0
   33.4679    8.9649    4.7840 H   0  0  0  0  0  0  0  0  0  0  0  0
   32.0423    8.1518    7.6273 H   0  0  0  0  0  0  0  0  0  0  0  0
   30.2332    9.2803    8.8436 H   0  0  0  0  0  0  0  0  0  0  0  0
   28.3448   13.3146    8.9952 H   0  0  0  0  0  0  0  0  0  0  0  0
   29.3653   13.6256    7.6529 H   0  0  0  0  0  0  0  0  0  0  0  0
   27.8185   15.0550   10.3378 H   0  0  0  0  0  0  0  0  0  0  0  0
   28.5284   15.1760   11.9889 H   0  0  0  0  0  0  0  0  0  0  0  0
   28.3651   13.6154   11.2033 H   0  0  0  0  0  0  0  0  0  0  0  0
   31.7777   15.7473   10.6715 H   0  0  0  0  0  0  0  0  0  0  0  0
   30.4781   16.5231   11.5836 H   0  0  0  0  0  0  0  0  0  0  0  0
   31.0869   14.9515   12.0987 H   0  0  0  0  0  0  0  0  0  0  0  0
   31.0289   12.8883    6.7224 H   0  0  0  0  0  0  0  0  0  0  0  0
   33.1687   13.3312    3.9168 H   0  0  0  0  0  0  0  0  0  0  0  0
   31.7260   13.4423    4.8687 H   0  0  0  0  0  0  0  0  0  0  0  0
   35.1099   14.9123    7.6703 H   0  0  0  0  0  0  0  0  0  0  0  0
   36.0347   15.8869    6.5128 H   0  0  0  0  0  0  0  0  0  0  0  0
   36.0942   12.8137    6.5271 H   0  0  0  0  0  0  0  0  0  0  0  0
   37.3145   13.7802    7.3476 H   0  0  0  0  0  0  0  0  0  0  0  0
   35.9864   12.7698    4.1812 H   0  0  0  0  0  0  0  0  0  0  0  0
   36.9316   13.9479    3.2576 H   0  0  0  0  0  0  0  0  0  0  0  0
   35.6526   15.8129    4.1663 H   0  0  0  0  0  0  0  0  0  0  0  0
   34.5034   14.6868    3.4725 H   0  0  0  0  0  0  0  0  0  0  0  0
  1  2  1  0
  2  3  2  0
  3  4  1  0
  4  5  2  0
  5  6  1  0
  6  7  1  0
  7  8  1  0
  8  9  2  0
  8 10  1  0
 10 11  1  0
 10 12  1  0
  5 13  1  0
 13 14  2  0
 14 15  1  0
 15 16  1  0
 16 17  1  0
 17 18  2  0
 17 19  1  0
 19 20  1  0
 20 21  1  0
 21 22  1  0
 22 23  1  0
 23 24  1  0
 14  2  1  0
 24 19  1  0
  1 25  1  0
  1 26  1  0
  1 27  1  0
  3 28  1  0
  4 29  1  0
  7 30  1  0
  7 31  1  0
 11 32  1  0
 11 33  1  0
 11 34  1  0
 12 35  1  0
 12 36  1  0
 12 37  1  0
 13 38  1  0
 16 39  1  0
 16 40  1  0
 20 41  1  0
 20 42  1  0
 21 43  1  0
 21 44  1  0
 23 45  1  0
 23 46  1  0
 24 47  1  0
 24 48  1  0
M  END
