LIG
     RDKit          3D

 48 49  0  0  0  0  0  0  0  0999 V2000
   30.4232    8.5755    9.0120 C   0  0  0  0  0  0  0  0  0  0  0  0
   31.1173    9.4656    8.0283 C   0  0  0  0  0  0  0  0  0  0  0  0
   32.1023    8.9133    7.2075 C   0  0  0  0  0  0  0  0  0  0  0  0
   32.8017    9.6873    6.2861 C   0  0  0  0  0  0  0  0  0  0  0  0
   32.4830   11.0249    6.1433 C   0  0  0  0  0  0  0  0  0  0  0  0
   33.1552   11.6997    5.1650 O   0  0  0  0  0  0  0  0  0  0  0  0
   32.7868   13.0577    4.9426 C   0  0  0  0  0  0  0  0  0  0  0  0
   33.4548   13.8831    6.0160 C   0  0  0  0  0  0  0  0  0  0  0  0
   32.9586   13.9524    7.1406 O   0  0  0  0  0  0  0  0  0  0  0  0
   34.6531   14.4780    5.7179 N   0  0  0  0  0  0  0  0  0  0  0  0
   35.5790   14.6146    6.8323 C   0  0  0  0  0  0  0  0  0  0  0  0
   36.8043   13.7583    6.5061 C   0  0  0  0  0  0  0  0  0  0  0  0
   37.5473   14.2855    5.3874 O   0  0  0  0  0  0  0  0  0  0  0  0
   36.7260   14.9917    4.4411 C   0  0  0  0  0  0  0  0  0  0  0  0
   35.2875   14.4695    4.3954 C   0  0  0  0  0  0  0  0  0  0  0  0
   31.4760   11.5664    6.9315 C   0  0  0  0  0  0  0  0  0  0  0  0
   30.7905   10.8081    7.8614 C   0  0  0  0  0  0  0  0  0  0  0  0
   29.7584   11.2982    8.5815 O   0  0  0  0  0  0  0  0  0  0  0  0
   29.3903   12.6598    8.4964 C   0  0  0  0  0  0  0  0  0  0  0  0
   30.2133   13.6465    9.3432 C   0  0  0  0  0  0  0  0  0  0  0  0
   31.4286   13.5690    9.5073 O   0  0  0  0  0  0  0  0  0  0  0  0
   29.4825   14.6419    9.9800 N   0  0  0  0  0  0  0  0  0  0  0  0
   30.1564   15.3285   11.0696 C   0  0  0  0  0  0  0  0  0  0  0  0
   28.3166   15.2240    9.3475 C   0  0  0  0  0  0  0  0  0  0  0  0
   29.6453    7.9924    8.5122 H   0  0  0  0  0  0  0  0  0  0  0  0
   29.9714    9.1388    9.8272 H   0  0  0  0  0  0  0  0  0  0  0  0
   31.1416    7.9006    9.4796 H   0  0  0  0  0  0  0  0  0  0  0  0
   32.3353    7.8601    7.3008 H   0  0  0  0  0  0  0  0  0  0  0  0
   33.5732    9.2292    5.6730 H   0  0  0  0  0  0  0  0  0  0  0  0
   31.7054   13.2309    4.9233 H   0  0  0  0  0  0  0  0  0  0  0  0
   33.1216   13.3327    3.9405 H   0  0  0  0  0  0  0  0  0  0  0  0
   35.8258   15.6717    6.8961 H   0  0  0  0  0  0  0  0  0  0  0  0
   35.1434   14.2973    7.7842 H   0  0  0  0  0  0  0  0  0  0  0  0
   37.4830   13.6732    7.3596 H   0  0  0  0  0  0  0  0  0  0  0  0
   36.5068   12.7385    6.2376 H   0  0  0  0  0  0  0  0  0  0  0  0
   36.7578   16.0519    4.7042 H   0  0  0  0  0  0  0  0  0  0  0  0
   37.1962   14.8919    3.4577 H   0  0  0  0  0  0  0  0  0  0  0  0
   35.3093   13.4312    4.0442 H   0  0  0  0  0  0  0  0  0  0  0  0
   34.6710   15.0580    3.7086 H   0  0  0  0  0  0  0  0  0  0  0  0
   31.1968   12.5979    6.8156 H   0  0  0  0  0  0  0  0  0  0  0  0
   29.3123   13.0165    7.4633 H   0  0  0  0  0  0  0  0  0  0  0  0
   28.3660   12.6738    8.8788 H   0  0  0  0  0  0  0  0  0  0  0  0
   30.9220   14.6957   11.5189 H   0  0  0  0  0  0  0  0  0  0  0  0
   30.6502   16.2267   10.6942 H   0  0  0  0  0  0  0  0  0  0  0  0
   29.4276   15.5583   11.8494 H   0  0  0  0  0  0  0  0  0  0  0  0
   28.5980   16.1728    8.8849 H   0  0  0  0  0  0  0  0  0  0  0  0
   27.9147   14.6202    8.5328 H   0  0  0  0  0  0  0  0  0  0  0  0
   27.5319   15.3406   10.0891 H   0  0  0  0  0  0  0  0  0  0  0  0
  1  2  1  0
  2  3  2  0
  3  4  1  0
  4  5  2  0
  5  6  1  0
  6  7  1  0
  7  8  1  0
  8  9  2  0
  8 10  1  0
 10 11  1  0
 11 12  1  0
 12 13  1  0
 13 14  1  0
 14 15  1  0
  5 16  1  0
 16 17  2  0
 17 18  1  0
 18 19  1  0
 19 20  1  0
 20 21  2  0
 20 22  1  0
 22 23  1  0
 22 24  1  0
 17  2  1  0
 15 10  1  0
  1 25  1  0
  1 26  1  0
  1 27  1  0
  3 28  1  0
  4 29  1  0
  7 30  1  0
  7 31  1  0
 11 32  1  0
 11 33  1  0
 12 34  1  0
 12 35  1  0
 14 36  1  0
 14 37  1  0
 15 38  1  0
 15 39  1  0
 16 40  1  0
 19 41  1  0
 19 42  1  0
 23 43  1  0
 23 44  1  0
 23 45  1  0
 24 46  1  0
 24 47  1  0
 24 48  1  0
M  END
