LIG
     RDKit          3D

 28 28  0  0  0  0  0  0  0  0999 V2000
   33.3585    8.7022    5.4360 C   0  0  0  0  0  0  0  0  0  0  0  0
   34.0919    9.8890    5.3985 C   0  0  0  0  0  0  0  0  0  0  0  0
   33.5512   11.0523    5.9392 C   0  0  0  0  0  0  0  0  0  0  0  0
   34.3546   12.2199    5.9882 N   0  0  0  0  0  0  0  0  0  0  0  0
   34.4883   13.0284    7.1134 C   0  0  0  0  0  0  0  0  0  0  0  0
   34.0095   12.8104    8.2197 O   0  0  0  0  0  0  0  0  0  0  0  0
   35.3360   14.2800    6.8852 C   0  0  0  0  0  0  0  0  0  0  0  0
   35.4109   14.6875    5.5305 O   0  0  0  0  0  0  0  0  0  0  0  0
   32.2401   11.0097    6.4401 C   0  0  0  0  0  0  0  0  0  0  0  0
   31.6110   12.1699    6.8610 N   0  0  0  0  0  0  0  0  0  0  0  0
   31.4662   13.2570    6.0331 C   0  0  0  0  0  0  0  0  0  0  0  0
   31.4608   13.1780    4.8112 O   0  0  0  0  0  0  0  0  0  0  0  0
   31.3637   14.5504    6.7791 C   0  0  0  0  0  0  0  0  0  0  0  0
   30.4869   15.4924    6.0858 C   0  0  0  0  0  0  0  0  0  0  0  0
   29.8083   16.2787    5.5644 N   0  0  0  0  0  0  0  0  0  0  0  0
   31.5298    9.8260    6.5403 C   0  0  0  0  0  0  0  0  0  0  0  0
   32.0896    8.6904    6.0118 C   0  0  0  0  0  0  0  0  0  0  0  0
   31.3503    7.5841    5.9845 F   0  0  0  0  0  0  0  0  0  0  0  0
   33.7709    7.7856    5.0262 H   0  0  0  0  0  0  0  0  0  0  0  0
   35.0952    9.8789    4.9823 H   0  0  0  0  0  0  0  0  0  0  0  0
   35.1408   12.2729    5.3481 H   0  0  0  0  0  0  0  0  0  0  0  0
   34.9154   15.1050    7.4684 H   0  0  0  0  0  0  0  0  0  0  0  0
   36.3499   14.0750    7.2409 H   0  0  0  0  0  0  0  0  0  0  0  0
   34.5056   14.8984    5.2377 H   0  0  0  0  0  0  0  0  0  0  0  0
   30.9616   12.0901    7.6209 H   0  0  0  0  0  0  0  0  0  0  0  0
   32.3713   14.9802    6.8096 H   0  0  0  0  0  0  0  0  0  0  0  0
   31.1072   14.3344    7.8146 H   0  0  0  0  0  0  0  0  0  0  0  0
   30.5287    9.7771    6.9442 H   0  0  0  0  0  0  0  0  0  0  0  0
  1  2  2  0
  2  3  1  0
  3  4  1  0
  4  5  1  0
  5  6  2  0
  5  7  1  0
  7  8  1  0
  3  9  2  0
  9 10  1  0
 10 11  1  0
 11 12  2  0
 11 13  1  0
 13 14  1  0
 14 15  3  0
  9 16  1  0
 16 17  2  0
 17 18  1  0
 17  1  1  0
  1 19  1  0
  2 20  1  0
  4 21  1  0
  7 22  1  0
  7 23  1  0
  8 24  1  0
 10 25  1  0
 13 26  1  0
 13 27  1  0
 16 28  1  0
M  END
