LIG
     RDKit          3D

 37 37  0  0  0  0  0  0  0  0999 V2000
   30.2641    9.0221    8.4080 C   0  0  0  0  0  0  0  0  0  0  0  0
   31.0041   10.0666    7.6193 C   0  0  0  0  0  0  0  0  0  0  0  0
   32.0645    9.6534    6.7931 C   0  0  0  0  0  0  0  0  0  0  0  0
   32.9001   10.5863    6.1895 C   0  0  0  0  0  0  0  0  0  0  0  0
   32.6717   11.9269    6.4490 C   0  0  0  0  0  0  0  0  0  0  0  0
   33.6791   12.8796    6.2450 N   0  0  0  0  0  0  0  0  0  0  0  0
   34.2774   13.4417    7.3861 C   0  0  0  0  0  0  0  0  0  0  0  0
   34.0630   13.0950    8.5475 O   0  0  0  0  0  0  0  0  0  0  0  0
   35.2419   14.5621    7.0729 C   0  0  0  0  0  0  0  0  0  0  0  0
   36.2762   14.1499    5.6398 S   0  0  0  0  0  0  0  0  0  0  0  0
   31.5086   12.3480    7.0780 C   0  0  0  0  0  0  0  0  0  0  0  0
   30.6798   11.4319    7.6993 C   0  0  0  0  0  0  0  0  0  0  0  0
   29.5891   11.7894    8.4273 O   0  0  0  0  0  0  0  0  0  0  0  0
   29.3153   13.1637    8.6893 C   0  0  0  0  0  0  0  0  0  0  0  0
   30.2955   13.9763    9.5896 C   0  0  0  0  0  0  0  0  0  0  0  0
   31.5188   13.9136    9.4468 O   0  0  0  0  0  0  0  0  0  0  0  0
   29.7781   14.8675   10.5156 N   0  0  0  0  0  0  0  0  0  0  0  0
   30.7313   15.5781   11.3537 C   0  0  0  0  0  0  0  0  0  0  0  0
   28.4712   14.6394   11.0810 C   0  0  0  0  0  0  0  0  0  0  0  0
   29.3036    8.7892    7.9490 H   0  0  0  0  0  0  0  0  0  0  0  0
   30.1194    9.3501    9.4397 H   0  0  0  0  0  0  0  0  0  0  0  0
   30.8434    8.0966    8.4623 H   0  0  0  0  0  0  0  0  0  0  0  0
   32.2972    8.5946    6.7026 H   0  0  0  0  0  0  0  0  0  0  0  0
   33.7909   10.2509    5.6698 H   0  0  0  0  0  0  0  0  0  0  0  0
   34.3832   12.6708    5.5452 H   0  0  0  0  0  0  0  0  0  0  0  0
   35.8844   14.7214    7.9423 H   0  0  0  0  0  0  0  0  0  0  0  0
   34.6876   15.4752    6.8647 H   0  0  0  0  0  0  0  0  0  0  0  0
   36.8889   13.1101    6.2291 H   0  0  0  0  0  0  0  0  0  0  0  0
   31.3435   13.4133    7.1608 H   0  0  0  0  0  0  0  0  0  0  0  0
   28.3118   13.1785    9.1145 H   0  0  0  0  0  0  0  0  0  0  0  0
   29.2111   13.7099    7.7423 H   0  0  0  0  0  0  0  0  0  0  0  0
   31.0308   14.9112   12.1531 H   0  0  0  0  0  0  0  0  0  0  0  0
   30.2948   16.4720   11.7950 H   0  0  0  0  0  0  0  0  0  0  0  0
   31.6182   15.8711   10.7858 H   0  0  0  0  0  0  0  0  0  0  0  0
   28.4017   15.1394   12.0469 H   0  0  0  0  0  0  0  0  0  0  0  0
   27.7240   15.0119   10.3780 H   0  0  0  0  0  0  0  0  0  0  0  0
   28.2925   13.5806   11.2526 H   0  0  0  0  0  0  0  0  0  0  0  0
  1  2  1  0
  2  3  2  0
  3  4  1  0
  4  5  2  0
  5  6  1  0
  6  7  1  0
  7  8  2  0
  7  9  1  0
  9 10  1  0
  5 11  1  0
 11 12  2  0
 12 13  1  0
 13 14  1  0
 14 15  1  0
 15 16  2  0
 15 17  1  0
 17 18  1  0
 17 19  1  0
 12  2  1  0
  1 20  1  0
  1 21  1  0
  1 22  1  0
  3 23  1  0
  4 24  1  0
  6 25  1  0
  9 26  1  0
  9 27  1  0
 10 28  1  0
 11 29  1  0
 14 30  1  0
 14 31  1  0
 18 32  1  0
 18 33  1  0
 18 34  1  0
 19 35  1  0
 19 36  1  0
 19 37  1  0
M  END
