LIG
     RDKit          3D

 27 27  0  0  0  0  0  0  0  0999 V2000
   -2.8289   -2.5212   -1.0263 C   0  0  0  0  0  0  0  0  0  0  0  0
   -2.7530   -1.2254   -0.2583 C   0  0  0  0  0  0  0  0  0  0  0  0
   -3.7446   -0.7576    0.2883 O   0  0  0  0  0  0  0  0  0  0  0  0
   -1.4681   -0.7126   -0.2248 N   0  0  0  0  0  0  0  0  0  0  0  0
   -1.0524    0.5359    0.3077 C   0  0  0  0  0  0  0  0  0  0  0  0
   -1.9705    1.5330    0.6669 C   0  0  0  0  0  0  0  0  0  0  0  0
   -1.5362    2.7943    1.0836 C   0  0  0  0  0  0  0  0  0  0  0  0
   -0.1766    3.0699    1.1594 C   0  0  0  0  0  0  0  0  0  0  0  0
    0.7459    2.0829    0.8264 C   0  0  0  0  0  0  0  0  0  0  0  0
    2.0408    2.3530    1.0475 F   0  0  0  0  0  0  0  0  0  0  0  0
    0.3322    0.8116    0.3945 C   0  0  0  0  0  0  0  0  0  0  0  0
    1.2621   -0.2344    0.1552 N   0  0  0  0  0  0  0  0  0  0  0  0
    2.5381   -0.0627   -0.3495 C   0  0  0  0  0  0  0  0  0  0  0  0
    2.9776    0.9565   -0.8764 O   0  0  0  0  0  0  0  0  0  0  0  0
    3.4040   -1.3215   -0.2577 C   0  0  0  0  0  0  0  0  0  0  0  0
    4.3952   -1.3526   -1.2721 O   0  0  0  0  0  0  0  0  0  0  0  0
   -2.4493   -3.3364   -0.4040 H   0  0  0  0  0  0  0  0  0  0  0  0
   -2.2442   -2.4568   -1.9493 H   0  0  0  0  0  0  0  0  0  0  0  0
   -3.8697   -2.7249   -1.2960 H   0  0  0  0  0  0  0  0  0  0  0  0
   -0.7582   -1.2458   -0.7065 H   0  0  0  0  0  0  0  0  0  0  0  0
   -3.0431    1.3723    0.6010 H   0  0  0  0  0  0  0  0  0  0  0  0
   -2.2644    3.5573    1.3486 H   0  0  0  0  0  0  0  0  0  0  0  0
    0.1763    4.0376    1.5026 H   0  0  0  0  0  0  0  0  0  0  0  0
    0.9297   -1.1792    0.2836 H   0  0  0  0  0  0  0  0  0  0  0  0
    2.7898   -2.2208   -0.3571 H   0  0  0  0  0  0  0  0  0  0  0  0
    3.8990   -1.3310    0.7176 H   0  0  0  0  0  0  0  0  0  0  0  0
    4.6684   -0.4215   -1.4047 H   0  0  0  0  0  0  0  0  0  0  0  0
  1  2  1  0
  2  3  2  0
  2  4  1  0
  4  5  1  0
  5  6  2  0
  6  7  1  0
  7  8  2  0
  8  9  1  0
  9 10  1  0
  9 11  2  0
 11 12  1  0
 12 13  1  0
 13 14  2  0
 13 15  1  0
 15 16  1  0
 11  5  1  0
  1 17  1  0
  1 18  1  0
  1 19  1  0
  4 20  1  0
  6 21  1  0
  7 22  1  0
  8 23  1  0
 12 24  1  0
 15 25  1  0
 15 26  1  0
 16 27  1  0
M  END
