LIG
     RDKit          3D

 41 42  0  0  0  0  0  0  0  0999 V2000
   30.6264    8.4317    8.1778 C   0  0  0  0  0  0  0  0  0  0  0  0
   31.3286    9.5588    7.4972 C   0  0  0  0  0  0  0  0  0  0  0  0
   32.3867    9.3564    6.6076 C   0  0  0  0  0  0  0  0  0  0  0  0
   33.1369   10.4272    6.1110 C   0  0  0  0  0  0  0  0  0  0  0  0
   34.2570   10.1594    5.1502 C   0  0  0  0  0  0  0  0  0  0  0  0
   32.8374   11.7042    6.5942 C   0  0  0  0  0  0  0  0  0  0  0  0
   33.7553   12.7576    6.4410 N   0  0  0  0  0  0  0  0  0  0  0  0
   34.2500   13.3952    7.5809 C   0  0  0  0  0  0  0  0  0  0  0  0
   33.9506   13.0920    8.7414 O   0  0  0  0  0  0  0  0  0  0  0  0
   35.2168   14.5268    7.3095 C   0  0  0  0  0  0  0  0  0  0  0  0
   35.7226   14.6547    5.5705 S   0  0  0  0  0  0  0  0  0  0  0  0
   31.6771   11.9329    7.3475 C   0  0  0  0  0  0  0  0  0  0  0  0
   31.3568   13.2522    7.5718 O   0  0  0  0  0  0  0  0  0  0  0  0
   30.2580   13.4498    8.4070 C   0  0  0  0  0  0  0  0  0  0  0  0
   28.9370   13.3605    7.6352 C   0  0  0  0  0  0  0  0  0  0  0  0
   28.3489   14.7384    7.7762 C   0  0  0  0  0  0  0  0  0  0  0  0
   28.8692   15.2355    9.0213 N   0  0  0  0  0  0  0  0  0  0  0  0
   28.1296   14.8883   10.1941 C   0  0  0  0  0  0  0  0  0  0  0  0
   30.1946   14.7839    9.1227 C   0  0  0  0  0  0  0  0  0  0  0  0
   31.0700   15.3389    9.7687 O   0  0  0  0  0  0  0  0  0  0  0  0
   30.9348   10.8496    7.8003 C   0  0  0  0  0  0  0  0  0  0  0  0
   29.5425    8.5066    8.0615 H   0  0  0  0  0  0  0  0  0  0  0  0
   30.9584    7.5020    7.7357 H   0  0  0  0  0  0  0  0  0  0  0  0
   30.8692    8.4141    9.2439 H   0  0  0  0  0  0  0  0  0  0  0  0
   32.6757    8.3421    6.3488 H   0  0  0  0  0  0  0  0  0  0  0  0
   34.0014   10.5683    4.1672 H   0  0  0  0  0  0  0  0  0  0  0  0
   35.1942   10.6099    5.4850 H   0  0  0  0  0  0  0  0  0  0  0  0
   34.4367    9.0861    5.0281 H   0  0  0  0  0  0  0  0  0  0  0  0
   34.4602   12.6881    5.7144 H   0  0  0  0  0  0  0  0  0  0  0  0
   34.7288   15.4533    7.6042 H   0  0  0  0  0  0  0  0  0  0  0  0
   36.1053   14.3708    7.9260 H   0  0  0  0  0  0  0  0  0  0  0  0
   35.6821   16.0022    5.5052 H   0  0  0  0  0  0  0  0  0  0  0  0
   30.2759   12.7578    9.2446 H   0  0  0  0  0  0  0  0  0  0  0  0
   28.2781   12.6280    8.1117 H   0  0  0  0  0  0  0  0  0  0  0  0
   29.0482   13.0735    6.5848 H   0  0  0  0  0  0  0  0  0  0  0  0
   28.7168   15.3920    6.9792 H   0  0  0  0  0  0  0  0  0  0  0  0
   27.2585   14.7478    7.7680 H   0  0  0  0  0  0  0  0  0  0  0  0
   27.1549   15.3545   10.1058 H   0  0  0  0  0  0  0  0  0  0  0  0
   28.6568   15.1912   11.1026 H   0  0  0  0  0  0  0  0  0  0  0  0
   28.0085   13.8029   10.2617 H   0  0  0  0  0  0  0  0  0  0  0  0
   30.0637   10.9493    8.4353 H   0  0  0  0  0  0  0  0  0  0  0  0
  1  2  1  0
  2  3  2  0
  3  4  1  0
  4  5  1  0
  4  6  2  0
  6  7  1  0
  7  8  1  0
  8  9  2  0
  8 10  1  0
 10 11  1  0
  6 12  1  0
 12 13  1  0
 13 14  1  0
 14 15  1  0
 15 16  1  0
 16 17  1  0
 17 18  1  0
 17 19  1  0
 19 20  2  0
 12 21  2  0
 21  2  1  0
 19 14  1  0
  1 22  1  0
  1 23  1  0
  1 24  1  0
  3 25  1  0
  5 26  1  0
  5 27  1  0
  5 28  1  0
  7 29  1  0
 10 30  1  0
 10 31  1  0
 11 32  1  0
 14 33  1  0
 15 34  1  0
 15 35  1  0
 16 36  1  0
 16 37  1  0
 18 38  1  0
 18 39  1  0
 18 40  1  0
 21 41  1  0
M  END
