LIG
     RDKit          3D

 44 45  0  0  0  0  0  0  0  0999 V2000
   30.3463   10.8646    8.5418 C   0  0  0  0  0  0  0  0  0  0  0  0
   31.3460   10.4150    7.4890 C   0  0  0  0  0  0  0  0  0  0  0  0
   31.8610   11.3420    6.6030 C   0  0  0  0  0  0  0  0  0  0  0  0
   32.8210   10.9050    5.6820 C   0  0  0  0  0  0  0  0  0  0  0  0
   33.3300   11.7430    4.6780 N   0  0  0  0  0  0  0  0  0  0  0  0
   33.5900   13.0680    4.7540 C   0  0  0  0  0  0  0  0  0  0  0  0
   33.4420   13.7460    5.7670 O   0  0  0  0  0  0  0  0  0  0  0  0
   34.1200   13.7080    3.4770 C   0  0  0  0  0  0  0  0  0  0  0  0
   33.0230   14.1560    2.5380 C   0  0  0  0  0  0  0  0  0  0  0  0
   33.7650   14.2490    1.2210 C   0  0  0  0  0  0  0  0  0  0  0  0
   34.7960   13.1450    1.3220 C   0  0  0  0  0  0  0  0  0  0  0  0
   34.9020   12.7780    2.7050 O   0  0  0  0  0  0  0  0  0  0  0  0
   33.2630    9.6380    5.6520 C   0  0  0  0  0  0  0  0  0  0  0  0
   31.1010   11.1095    7.5261 C   0  0  0  0  0  0  0  0  0  0  0  0
   29.4280   11.6110    9.1450 O   0  0  0  0  0  0  0  0  0  0  0  0
   28.8670   12.8920    9.4310 C   0  0  0  0  0  0  0  0  0  0  0  0
   29.9260   13.8300    9.9860 C   0  0  0  0  0  0  0  0  0  0  0  0
   31.1030   13.5010    9.9720 O   0  0  0  0  0  0  0  0  0  0  0  0
   29.5320   15.0110   10.4940 N   0  0  0  0  0  0  0  0  0  0  0  0
   30.5000   15.9370   11.0760 C   0  0  0  0  0  0  0  0  0  0  0  0
   28.1410   15.4480   10.5470 C   0  0  0  0  0  0  0  0  0  0  0  0
   31.7660    9.0980    7.4680 C   0  0  0  0  0  0  0  0  0  0  0  0
   29.7373   11.6966    8.1731 H   0  0  0  0  0  0  0  0  0  0  0  0
   30.8743   11.1853    9.4451 H   0  0  0  0  0  0  0  0  0  0  0  0
   29.6602   10.0517    8.8021 H   0  0  0  0  0  0  0  0  0  0  0  0
   31.5362   12.3607    6.6184 H   0  0  0  0  0  0  0  0  0  0  0  0
   33.5956   11.3048    3.7982 H   0  0  0  0  0  0  0  0  0  0  0  0
   33.1594   12.2300    3.0330 H   0  0  0  0  0  0  0  0  0  0  0  0
   32.1815   13.4626    2.5037 H   0  0  0  0  0  0  0  0  0  0  0  0
   32.6376   15.1428    2.8125 H   0  0  0  0  0  0  0  0  0  0  0  0
   34.2111   15.2363    1.0408 H   0  0  0  0  0  0  0  0  0  0  0  0
   33.0701   14.0392    0.3932 H   0  0  0  0  0  0  0  0  0  0  0  0
   35.7851   13.4925    0.9891 H   0  0  0  0  0  0  0  0  0  0  0  0
   34.5274   12.2621    0.7267 H   0  0  0  0  0  0  0  0  0  0  0  0
   32.6009    8.7756    5.8203 H   0  0  0  0  0  0  0  0  0  0  0  0
   28.0879   12.7809   10.1889 H   0  0  0  0  0  0  0  0  0  0  0  0
   28.4812   13.3250    8.5051 H   0  0  0  0  0  0  0  0  0  0  0  0
   29.9999   16.8806   11.3084 H   0  0  0  0  0  0  0  0  0  0  0  0
   31.3251   16.1432   10.3943 H   0  0  0  0  0  0  0  0  0  0  0  0
   30.5617   16.8189   10.4334 H   0  0  0  0  0  0  0  0  0  0  0  0
   28.0086   16.2980   11.2204 H   0  0  0  0  0  0  0  0  0  0  0  0
   27.7907   15.3655   11.5795 H   0  0  0  0  0  0  0  0  0  0  0  0
   27.5194   14.6217   10.9018 H   0  0  0  0  0  0  0  0  0  0  0  0
   31.5410    8.4901    6.5926 H   0  0  0  0  0  0  0  0  0  0  0  0
  1  2  1  0
  2  3  4  0
  3  4  4  0
  4  5  1  0
  5  6  1  0
  6  7  2  0
  6  8  1  0
  8  9  1  0
  9 10  1  0
 10 11  1  0
 11 12  1  0
  4 13  4  0
 13 14  4  0
 14 15  1  0
 15 16  1  0
 16 17  1  0
 17 18  2  0
 17 19  1  0
 19 20  1  0
 19 21  1  0
 14 22  4  0
 22  2  4  0
 12  8  1  0
  1 23  1  0
  1 24  1  0
  1 25  1  0
  3 26  1  0
  5 27  1  0
  8 28  1  0
  9 29  1  0
  9 30  1  0
 10 31  1  0
 10 32  1  0
 11 33  1  0
 11 34  1  0
 13 35  1  0
 16 36  1  0
 16 37  1  0
 20 38  1  0
 20 39  1  0
 20 40  1  0
 21 41  1  0
 21 42  1  0
 21 43  1  0
 22 44  1  0
M  END
$$$$
LIG
     RDKit          3D

 44 45  0  0  0  0  0  0  0  0999 V2000
   30.3444   10.8652    8.5383 C   0  0  0  0  0  0  0  0  0  0  0  0
   31.3460   10.4150    7.4890 C   0  0  0  0  0  0  0  0  0  0  0  0
   31.8610   11.3420    6.6030 C   0  0  0  0  0  0  0  0  0  0  0  0
   32.8210   10.9050    5.6820 C   0  0  0  0  0  0  0  0  0  0  0  0
   33.3300   11.7430    4.6780 N   0  0  0  0  0  0  0  0  0  0  0  0
   33.5900   13.0680    4.7540 C   0  0  0  0  0  0  0  0  0  0  0  0
   33.4420   13.7460    5.7670 O   0  0  0  0  0  0  0  0  0  0  0  0
   34.1200   13.7080    3.4770 C   0  0  0  0  0  0  0  0  0  0  0  0
   33.0230   14.1560    2.5380 C   0  0  0  0  0  0  0  0  0  0  0  0
   33.7650   14.2490    1.2210 C   0  0  0  0  0  0  0  0  0  0  0  0
   34.7960   13.1450    1.3220 C   0  0  0  0  0  0  0  0  0  0  0  0
   34.9020   12.7780    2.7050 O   0  0  0  0  0  0  0  0  0  0  0  0
   33.2630    9.6380    5.6520 C   0  0  0  0  0  0  0  0  0  0  0  0
   31.1169   11.1142    7.5464 C   0  0  0  0  0  0  0  0  0  0  0  0
   29.4280   11.6110    9.1450 O   0  0  0  0  0  0  0  0  0  0  0  0
   28.8670   12.8920    9.4310 C   0  0  0  0  0  0  0  0  0  0  0  0
   29.9260   13.8300    9.9860 C   0  0  0  0  0  0  0  0  0  0  0  0
   31.1030   13.5010    9.9720 O   0  0  0  0  0  0  0  0  0  0  0  0
   29.5320   15.0110   10.4940 N   0  0  0  0  0  0  0  0  0  0  0  0
   28.1410   15.4480   10.5470 C   0  0  0  0  0  0  0  0  0  0  0  0
   30.5000   15.9370   11.0760 C   0  0  0  0  0  0  0  0  0  0  0  0
   31.7660    9.0980    7.4680 C   0  0  0  0  0  0  0  0  0  0  0  0
   29.7408   11.7016    8.1704 H   0  0  0  0  0  0  0  0  0  0  0  0
   29.6532   10.0544    8.7921 H   0  0  0  0  0  0  0  0  0  0  0  0
   30.8701   11.1800    9.4449 H   0  0  0  0  0  0  0  0  0  0  0  0
   31.5249   12.3567    6.6243 H   0  0  0  0  0  0  0  0  0  0  0  0
   33.5945   11.3028    3.7981 H   0  0  0  0  0  0  0  0  0  0  0  0
   33.1585   12.2300    3.0326 H   0  0  0  0  0  0  0  0  0  0  0  0
   32.6378   15.1429    2.8126 H   0  0  0  0  0  0  0  0  0  0  0  0
   32.1813   13.4626    2.5038 H   0  0  0  0  0  0  0  0  0  0  0  0
   33.0698   14.0392    0.3935 H   0  0  0  0  0  0  0  0  0  0  0  0
   34.2107   15.2367    1.0408 H   0  0  0  0  0  0  0  0  0  0  0  0
   35.7852   13.4937    0.9900 H   0  0  0  0  0  0  0  0  0  0  0  0
   34.5286   12.2620    0.7259 H   0  0  0  0  0  0  0  0  0  0  0  0
   32.7025    8.8423    5.1355 H   0  0  0  0  0  0  0  0  0  0  0  0
   28.0835   12.7859   10.1934 H   0  0  0  0  0  0  0  0  0  0  0  0
   28.4334   13.3515    8.5331 H   0  0  0  0  0  0  0  0  0  0  0  0
   27.6054   15.1988    9.6281 H   0  0  0  0  0  0  0  0  0  0  0  0
   27.9675   16.1519    9.7287 H   0  0  0  0  0  0  0  0  0  0  0  0
   28.1105   16.5317   10.6869 H   0  0  0  0  0  0  0  0  0  0  0  0
   30.3540   15.9576   12.1589 H   0  0  0  0  0  0  0  0  0  0  0  0
   31.1406   15.3957   11.7769 H   0  0  0  0  0  0  0  0  0  0  0  0
   31.5243   15.6395   10.8506 H   0  0  0  0  0  0  0  0  0  0  0  0
   31.5701    8.4997    6.5781 H   0  0  0  0  0  0  0  0  0  0  0  0
  1  2  1  0
  2  3  4  0
  3  4  4  0
  4  5  1  0
  5  6  1  0
  6  7  2  0
  6  8  1  0
  8  9  1  0
  9 10  1  0
 10 11  1  0
 11 12  1  0
  4 13  4  0
 13 14  4  0
 14 15  1  0
 15 16  1  0
 16 17  1  0
 17 18  2  0
 17 19  1  0
 19 20  1  0
 19 21  1  0
 14 22  4  0
 22  2  4  0
 12  8  1  0
  1 23  1  0
  1 24  1  0
  1 25  1  0
  3 26  1  0
  5 27  1  0
  8 28  1  0
  9 29  1  0
  9 30  1  0
 10 31  1  0
 10 32  1  0
 11 33  1  0
 11 34  1  0
 13 35  1  0
 16 36  1  0
 16 37  1  0
 20 38  1  0
 20 39  1  0
 20 40  1  0
 21 41  1  0
 21 42  1  0
 21 43  1  0
 22 44  1  0
M  END
$$$$
LIG
     RDKit          3D

 44 45  0  0  0  0  0  0  0  0999 V2000
   30.2547   10.8369    8.4587 C   0  0  0  0  0  0  0  0  0  0  0  0
   31.3460   10.4150    7.4890 C   0  0  0  0  0  0  0  0  0  0  0  0
   31.8610   11.3420    6.6030 C   0  0  0  0  0  0  0  0  0  0  0  0
   32.8210   10.9050    5.6820 C   0  0  0  0  0  0  0  0  0  0  0  0
   33.3300   11.7430    4.6780 N   0  0  0  0  0  0  0  0  0  0  0  0
   33.5900   13.0680    4.7540 C   0  0  0  0  0  0  0  0  0  0  0  0
   33.4420   13.7460    5.7670 O   0  0  0  0  0  0  0  0  0  0  0  0
   34.1200   13.7080    3.4770 C   0  0  0  0  0  0  0  0  0  0  0  0
   33.0230   14.1560    2.5380 C   0  0  0  0  0  0  0  0  0  0  0  0
   33.7650   14.2490    1.2210 C   0  0  0  0  0  0  0  0  0  0  0  0
   34.7960   13.1450    1.3220 C   0  0  0  0  0  0  0  0  0  0  0  0
   34.9020   12.7780    2.7050 O   0  0  0  0  0  0  0  0  0  0  0  0
   33.2630    9.6380    5.6520 C   0  0  0  0  0  0  0  0  0  0  0  0
   31.0106   10.8007    7.7784 C   0  0  0  0  0  0  0  0  0  0  0  0
   29.4280   11.6110    9.1450 O   0  0  0  0  0  0  0  0  0  0  0  0
   28.8670   12.8920    9.4310 C   0  0  0  0  0  0  0  0  0  0  0  0
   29.9260   13.8300    9.9860 C   0  0  0  0  0  0  0  0  0  0  0  0
   31.1030   13.5010    9.9720 O   0  0  0  0  0  0  0  0  0  0  0  0
   29.5320   15.0110   10.4940 N   0  0  0  0  0  0  0  0  0  0  0  0
   30.5000   15.9370   11.0760 C   0  0  0  0  0  0  0  0  0  0  0  0
   28.1410   15.4480   10.5470 C   0  0  0  0  0  0  0  0  0  0  0  0
   31.7660    9.0980    7.4680 C   0  0  0  0  0  0  0  0  0  0  0  0
   29.2753   10.7537    7.9777 H   0  0  0  0  0  0  0  0  0  0  0  0
   30.2616   10.2092    9.3560 H   0  0  0  0  0  0  0  0  0  0  0  0
   30.4039   11.8713    8.7857 H   0  0  0  0  0  0  0  0  0  0  0  0
   31.5197   12.3540    6.6291 H   0  0  0  0  0  0  0  0  0  0  0  0
   33.5011   11.2850    3.7817 H   0  0  0  0  0  0  0  0  0  0  0  0
   34.7859   14.5316    3.7495 H   0  0  0  0  0  0  0  0  0  0  0  0
   32.1584   13.4890    2.4844 H   0  0  0  0  0  0  0  0  0  0  0  0
   32.6705   15.1547    2.8219 H   0  0  0  0  0  0  0  0  0  0  0  0
   33.0758   14.0430    0.3897 H   0  0  0  0  0  0  0  0  0  0  0  0
   34.2123   15.2339    1.0408 H   0  0  0  0  0  0  0  0  0  0  0  0
   35.7820   13.4942    0.9959 H   0  0  0  0  0  0  0  0  0  0  0  0
   34.5269   12.2663    0.7277 H   0  0  0  0  0  0  0  0  0  0  0  0
   33.0974    9.0136    4.7624 H   0  0  0  0  0  0  0  0  0  0  0  0
   28.0518   12.8190   10.1603 H   0  0  0  0  0  0  0  0  0  0  0  0
   28.4848   13.3365    8.5042 H   0  0  0  0  0  0  0  0  0  0  0  0
   31.1261   16.3460   10.2793 H   0  0  0  0  0  0  0  0  0  0  0  0
   29.9528   16.7445   11.5691 H   0  0  0  0  0  0  0  0  0  0  0  0
   31.1424   15.4425   11.8075 H   0  0  0  0  0  0  0  0  0  0  0  0
   27.4885   14.6131   10.2775 H   0  0  0  0  0  0  0  0  0  0  0  0
   28.0051   16.2664    9.8351 H   0  0  0  0  0  0  0  0  0  0  0  0
   27.8662   15.7836   11.5478 H   0  0  0  0  0  0  0  0  0  0  0  0
   31.9555    8.5942    6.5178 H   0  0  0  0  0  0  0  0  0  0  0  0
  1  2  1  0
  2  3  4  0
  3  4  4  0
  4  5  1  0
  5  6  1  0
  6  7  2  0
  6  8  1  0
  8  9  1  0
  9 10  1  0
 10 11  1  0
 11 12  1  0
  4 13  4  0
 13 14  4  0
 14 15  1  0
 15 16  1  0
 16 17  1  0
 17 18  2  0
 17 19  1  0
 19 20  1  0
 19 21  1  0
 14 22  4  0
 22  2  4  0
 12  8  1  0
  1 23  1  0
  1 24  1  0
  1 25  1  0
  3 26  1  0
  5 27  1  0
  8 28  1  0
  9 29  1  0
  9 30  1  0
 10 31  1  0
 10 32  1  0
 11 33  1  0
 11 34  1  0
 13 35  1  0
 16 36  1  0
 16 37  1  0
 20 38  1  0
 20 39  1  0
 20 40  1  0
 21 41  1  0
 21 42  1  0
 21 43  1  0
 22 44  1  0
M  END
$$$$
