LIG
     RDKit          3D

 48 49  0  0  0  0  0  0  0  0999 V2000
   31.1930    9.5281    6.8728 C   0  0  0  0  0  0  0  0  0  0  0  0
   32.2882   10.4563    6.4766 C   0  0  0  0  0  0  0  0  0  0  0  0
   33.3419    9.8623    5.7698 C   0  0  0  0  0  0  0  0  0  0  0  0
   34.3424   10.6653    5.2682 C   0  0  0  0  0  0  0  0  0  0  0  0
   34.3230   12.0051    5.6072 C   0  0  0  0  0  0  0  0  0  0  0  0
   34.9218   12.9009    4.7711 O   0  0  0  0  0  0  0  0  0  0  0  0
   33.9247   13.8233    4.2696 C   0  0  0  0  0  0  0  0  0  0  0  0
   33.8809   15.1012    5.1097 C   0  0  0  0  0  0  0  0  0  0  0  0
   32.8594   15.4314    5.7100 O   0  0  0  0  0  0  0  0  0  0  0  0
   35.0499   15.8384    5.1794 N   0  0  0  0  0  0  0  0  0  0  0  0
   35.2809   16.6954    6.3382 C   0  0  0  0  0  0  0  0  0  0  0  0
   36.3353   16.0541    7.2484 C   0  0  0  0  0  0  0  0  0  0  0  0
   37.5504   15.8188    6.5107 O   0  0  0  0  0  0  0  0  0  0  0  0
   37.3125   14.9203    5.4139 C   0  0  0  0  0  0  0  0  0  0  0  0
   36.2804   15.5196    4.4577 C   0  0  0  0  0  0  0  0  0  0  0  0
   33.5107   12.5012    6.5942 C   0  0  0  0  0  0  0  0  0  0  0  0
   32.3659   11.8161    6.8439 C   0  0  0  0  0  0  0  0  0  0  0  0
   31.3383   12.4388    7.4594 O   0  0  0  0  0  0  0  0  0  0  0  0
   31.3750   13.8236    7.8706 C   0  0  0  0  0  0  0  0  0  0  0  0
   32.3513   14.5765    8.8111 C   0  0  0  0  0  0  0  0  0  0  0  0
   33.0424   13.9098    9.5849 O   0  0  0  0  0  0  0  0  0  0  0  0
   32.4310   15.9772    8.8306 N   0  0  0  0  0  0  0  0  0  0  0  0
   31.7587   16.9336    7.9523 C   0  0  0  0  0  0  0  0  0  0  0  0
   33.3195   16.6345    9.7629 C   0  0  0  0  0  0  0  0  0  0  0  0
   30.3581   10.0437    7.3361 H   0  0  0  0  0  0  0  0  0  0  0  0
   30.8202    8.9907    5.9961 H   0  0  0  0  0  0  0  0  0  0  0  0
   31.6498    8.8120    7.5499 H   0  0  0  0  0  0  0  0  0  0  0  0
   33.3205    8.8048    5.5193 H   0  0  0  0  0  0  0  0  0  0  0  0
   35.0578   10.2807    4.5500 H   0  0  0  0  0  0  0  0  0  0  0  0
   32.9208   13.3815    4.1958 H   0  0  0  0  0  0  0  0  0  0  0  0
   34.1921   14.0848    3.2399 H   0  0  0  0  0  0  0  0  0  0  0  0
   34.3653   16.8686    6.8930 H   0  0  0  0  0  0  0  0  0  0  0  0
   35.6449   17.6569    5.9586 H   0  0  0  0  0  0  0  0  0  0  0  0
   35.9806   15.1056    7.6688 H   0  0  0  0  0  0  0  0  0  0  0  0
   36.5744   16.7262    8.0781 H   0  0  0  0  0  0  0  0  0  0  0  0
   38.2640   14.7750    4.8932 H   0  0  0  0  0  0  0  0  0  0  0  0
   36.9986   13.9519    5.8158 H   0  0  0  0  0  0  0  0  0  0  0  0
   36.1137   14.8648    3.6019 H   0  0  0  0  0  0  0  0  0  0  0  0
   36.6594   16.4714    4.0653 H   0  0  0  0  0  0  0  0  0  0  0  0
   33.6754   13.4983    6.9655 H   0  0  0  0  0  0  0  0  0  0  0  0
   30.5140   13.8389    8.5290 H   0  0  0  0  0  0  0  0  0  0  0  0
   31.1549   14.4171    6.9845 H   0  0  0  0  0  0  0  0  0  0  0  0
   31.2329   16.4891    7.1084 H   0  0  0  0  0  0  0  0  0  0  0  0
   32.5149   17.5840    7.5014 H   0  0  0  0  0  0  0  0  0  0  0  0
   31.1293   17.6076    8.5443 H   0  0  0  0  0  0  0  0  0  0  0  0
   34.0535   15.9544   10.1990 H   0  0  0  0  0  0  0  0  0  0  0  0
   32.7259   17.1509   10.5183 H   0  0  0  0  0  0  0  0  0  0  0  0
   33.9043   17.3931    9.2304 H   0  0  0  0  0  0  0  0  0  0  0  0
  1  2  1  0
  2  3  2  0
  3  4  1  0
  4  5  2  0
  5  6  1  0
  6  7  1  0
  7  8  1  0
  8  9  2  0
  8 10  1  0
 10 11  1  0
 11 12  1  0
 12 13  1  0
 13 14  1  0
 14 15  1  0
  5 16  1  0
 16 17  2  0
 17 18  1  0
 18 19  1  0
 19 20  1  0
 20 21  2  0
 20 22  1  0
 22 23  1  0
 22 24  1  0
 17  2  1  0
 15 10  1  0
  1 25  1  0
  1 26  1  0
  1 27  1  0
  3 28  1  0
  4 29  1  0
  7 30  1  0
  7 31  1  0
 11 32  1  0
 11 33  1  0
 12 34  1  0
 12 35  1  0
 14 36  1  0
 14 37  1  0
 15 38  1  0
 15 39  1  0
 16 40  1  0
 19 41  1  0
 19 42  1  0
 23 43  1  0
 23 44  1  0
 23 45  1  0
 24 46  1  0
 24 47  1  0
 24 48  1  0
M  END
