LIG
     RDKit          3D

 39 40  0  0  0  0  0  0  0  0999 V2000
   28.4856   16.0387    7.9366 N   0  0  0  0  0  0  0  0  0  0  0  0
   28.6366   14.9701    8.3511 C   0  0  0  0  0  0  0  0  0  0  0  0
   28.8402   13.6670    8.9506 C   0  0  0  0  0  0  0  0  0  0  0  0
   29.2179   12.6665    7.9061 C   0  0  0  0  0  0  0  0  0  0  0  0
   29.0738   12.8547    6.6990 O   0  0  0  0  0  0  0  0  0  0  0  0
   29.7666   11.5257    8.4578 N   0  0  0  0  0  0  0  0  0  0  0  0
   30.7522   10.7874    7.8198 C   0  0  0  0  0  0  0  0  0  0  0  0
   30.9827    9.4611    8.1117 C   0  0  0  0  0  0  0  0  0  0  0  0
   31.9720    8.8049    7.3875 C   0  0  0  0  0  0  0  0  0  0  0  0
   32.7807    9.4822    6.4622 C   0  0  0  0  0  0  0  0  0  0  0  0
   32.5779   10.8290    6.2308 C   0  0  0  0  0  0  0  0  0  0  0  0
   33.3975   11.4679    5.3529 O   0  0  0  0  0  0  0  0  0  0  0  0
   33.0346   12.7992    4.9781 C   0  0  0  0  0  0  0  0  0  0  0  0
   33.5007   13.8111    6.0203 C   0  0  0  0  0  0  0  0  0  0  0  0
   33.0153   13.8259    7.1582 O   0  0  0  0  0  0  0  0  0  0  0  0
   34.5329   14.6636    5.6878 N   0  0  0  0  0  0  0  0  0  0  0  0
   35.4688   14.8885    6.7810 C   0  0  0  0  0  0  0  0  0  0  0  0
   36.5512   13.8126    6.6504 C   0  0  0  0  0  0  0  0  0  0  0  0
   37.2809   14.0204    5.4218 O   0  0  0  0  0  0  0  0  0  0  0  0
   36.4013   13.8395    4.2943 C   0  0  0  0  0  0  0  0  0  0  0  0
   35.1887   14.7746    4.3771 C   0  0  0  0  0  0  0  0  0  0  0  0
   31.5408   11.4453    6.8924 C   0  0  0  0  0  0  0  0  0  0  0  0
   29.6521   13.7482    9.6813 H   0  0  0  0  0  0  0  0  0  0  0  0
   27.9443   13.3255    9.4675 H   0  0  0  0  0  0  0  0  0  0  0  0
   29.4497   11.2147    9.3736 H   0  0  0  0  0  0  0  0  0  0  0  0
   30.3799    8.9118    8.8268 H   0  0  0  0  0  0  0  0  0  0  0  0
   32.1223    7.7483    7.5567 H   0  0  0  0  0  0  0  0  0  0  0  0
   33.5642    8.9440    5.9341 H   0  0  0  0  0  0  0  0  0  0  0  0
   33.5064   12.9548    4.0100 H   0  0  0  0  0  0  0  0  0  0  0  0
   31.9654   12.9285    4.7791 H   0  0  0  0  0  0  0  0  0  0  0  0
   35.8934   15.8777    6.6399 H   0  0  0  0  0  0  0  0  0  0  0  0
   34.9915   14.8380    7.7634 H   0  0  0  0  0  0  0  0  0  0  0  0
   36.1119   12.8146    6.6077 H   0  0  0  0  0  0  0  0  0  0  0  0
   37.2533   13.8201    7.4868 H   0  0  0  0  0  0  0  0  0  0  0  0
   36.9758   14.0466    3.3861 H   0  0  0  0  0  0  0  0  0  0  0  0
   36.0901   12.7890    4.2599 H   0  0  0  0  0  0  0  0  0  0  0  0
   35.5516   15.7980    4.2723 H   0  0  0  0  0  0  0  0  0  0  0  0
   34.4845   14.6093    3.5594 H   0  0  0  0  0  0  0  0  0  0  0  0
   31.3284   12.4858    6.7097 H   0  0  0  0  0  0  0  0  0  0  0  0
  1  2  3  0
  2  3  1  0
  3  4  1  0
  4  5  2  0
  4  6  1  0
  6  7  1  0
  7  8  2  0
  8  9  1  0
  9 10  2  0
 10 11  1  0
 11 12  1  0
 12 13  1  0
 13 14  1  0
 14 15  2  0
 14 16  1  0
 16 17  1  0
 17 18  1  0
 18 19  1  0
 19 20  1  0
 20 21  1  0
 11 22  2  0
 22  7  1  0
 21 16  1  0
  3 23  1  0
  3 24  1  0
  6 25  1  0
  8 26  1  0
  9 27  1  0
 10 28  1  0
 13 29  1  0
 13 30  1  0
 17 31  1  0
 17 32  1  0
 18 33  1  0
 18 34  1  0
 20 35  1  0
 20 36  1  0
 21 37  1  0
 21 38  1  0
 22 39  1  0
M  END
