LIG
     RDKit          3D

 45 47  0  0  0  0  0  0  0  0999 V2000
   30.8425    9.9622    8.1403 C   0  0  0  0  0  0  0  0  0  0  0  0
   31.2485   11.2595    7.5202 C   0  0  0  0  0  0  0  0  0  0  0  0
   30.7336   11.7751    6.3679 C   0  0  0  0  0  0  0  0  0  0  0  0
   31.5662   12.5487    5.5496 C   0  0  0  0  0  0  0  0  0  0  0  0
   32.9284   12.5565    5.7992 C   0  0  0  0  0  0  0  0  0  0  0  0
   33.8672   13.0193    4.8875 N   0  0  0  0  0  0  0  0  0  0  0  0
   33.5869   14.0135    3.9812 C   0  0  0  0  0  0  0  0  0  0  0  0
   32.5380   14.6575    3.9763 O   0  0  0  0  0  0  0  0  0  0  0  0
   34.7413   14.3020    3.0208 C   0  0  0  0  0  0  0  0  0  0  0  0
   34.2690   15.0418    1.7812 C   0  0  0  0  0  0  0  0  0  0  0  0
   33.9246   13.9087    0.8484 C   0  0  0  0  0  0  0  0  0  0  0  0
   34.9993   12.8967    1.1790 C   0  0  0  0  0  0  0  0  0  0  0  0
   35.3201   13.0659    2.5675 O   0  0  0  0  0  0  0  0  0  0  0  0
   33.3336   12.1916    7.0551 C   0  0  0  0  0  0  0  0  0  0  0  0
   32.2849   12.0478    7.9502 C   0  0  0  0  0  0  0  0  0  0  0  0
   31.9103   13.4233    8.2741 O   0  0  0  0  0  0  0  0  0  0  0  0
   30.6667   13.5711    8.9100 C   0  0  0  0  0  0  0  0  0  0  0  0
   29.3728   13.7884    8.1259 C   0  0  0  0  0  0  0  0  0  0  0  0
   28.4483   14.2614    9.2216 C   0  0  0  0  0  0  0  0  0  0  0  0
   29.2893   15.0354   10.0970 N   0  0  0  0  0  0  0  0  0  0  0  0
   29.0844   14.9484   11.5137 C   0  0  0  0  0  0  0  0  0  0  0  0
   30.6320   14.8171    9.7567 C   0  0  0  0  0  0  0  0  0  0  0  0
   31.5619   15.5071   10.1405 O   0  0  0  0  0  0  0  0  0  0  0  0
   29.8371    9.6683    7.8405 H   0  0  0  0  0  0  0  0  0  0  0  0
   30.8175   10.0378    9.2255 H   0  0  0  0  0  0  0  0  0  0  0  0
   31.5362    9.1687    7.8467 H   0  0  0  0  0  0  0  0  0  0  0  0
   29.7096   11.6182    6.0816 H   0  0  0  0  0  0  0  0  0  0  0  0
   31.1545   13.0247    4.6666 H   0  0  0  0  0  0  0  0  0  0  0  0
   34.8485   12.8072    5.0426 H   0  0  0  0  0  0  0  0  0  0  0  0
   35.4964   14.8754    3.5692 H   0  0  0  0  0  0  0  0  0  0  0  0
   35.1040   15.6141    1.3581 H   0  0  0  0  0  0  0  0  0  0  0  0
   33.4387   15.7350    1.9400 H   0  0  0  0  0  0  0  0  0  0  0  0
   32.9369   13.5038    1.0989 H   0  0  0  0  0  0  0  0  0  0  0  0
   33.9194   14.1942   -0.2067 H   0  0  0  0  0  0  0  0  0  0  0  0
   34.6771   11.8674    0.9986 H   0  0  0  0  0  0  0  0  0  0  0  0
   35.9108   13.0838    0.6013 H   0  0  0  0  0  0  0  0  0  0  0  0
   34.3071   12.5386    7.3889 H   0  0  0  0  0  0  0  0  0  0  0  0
   30.5343   12.7486    9.5894 H   0  0  0  0  0  0  0  0  0  0  0  0
   29.4925   14.5418    7.3427 H   0  0  0  0  0  0  0  0  0  0  0  0
   28.9442   12.8943    7.6763 H   0  0  0  0  0  0  0  0  0  0  0  0
   27.6285   14.8830    8.8528 H   0  0  0  0  0  0  0  0  0  0  0  0
   28.0436   13.4074    9.7716 H   0  0  0  0  0  0  0  0  0  0  0  0
   29.5227   14.0258   11.8996 H   0  0  0  0  0  0  0  0  0  0  0  0
   28.0245   14.9328   11.7272 H   0  0  0  0  0  0  0  0  0  0  0  0
   29.5862   15.7746   12.0198 H   0  0  0  0  0  0  0  0  0  0  0  0
  1  2  1  0
  2  3  2  0
  3  4  1  0
  4  5  2  0
  5  6  1  0
  6  7  1  0
  7  8  2  0
  7  9  1  0
  9 10  1  0
 10 11  1  0
 11 12  1  0
 12 13  1  0
  5 14  1  0
 14 15  2  0
 15 16  1  0
 16 17  1  0
 17 18  1  0
 18 19  1  0
 19 20  1  0
 20 21  1  0
 20 22  1  0
 22 23  2  0
 15  2  1  0
 22 17  1  0
 13  9  1  0
  1 24  1  0
  1 25  1  0
  1 26  1  0
  3 27  1  0
  4 28  1  0
  6 29  1  0
  9 30  1  0
 10 31  1  0
 10 32  1  0
 11 33  1  0
 11 34  1  0
 12 35  1  0
 12 36  1  0
 14 37  1  0
 17 38  1  0
 18 39  1  0
 18 40  1  0
 19 41  1  0
 19 42  1  0
 21 43  1  0
 21 44  1  0
 21 45  1  0
M  END
