LIG
     RDKit          3D

 44 45  0  0  0  0  0  0  0  0999 V2000
   31.1563    8.8925    8.0872 C   0  0  0  0  0  0  0  0  0  0  0  0
   31.3599   10.2603    7.5096 C   0  0  0  0  0  0  0  0  0  0  0  0
   32.3570   10.5308    6.5563 C   0  0  0  0  0  0  0  0  0  0  0  0
   32.4235   11.7850    5.9390 C   0  0  0  0  0  0  0  0  0  0  0  0
   33.3587   11.9903    4.9051 N   0  0  0  0  0  0  0  0  0  0  0  0
   33.4419   13.0972    4.0698 C   0  0  0  0  0  0  0  0  0  0  0  0
   32.7603   14.1192    4.1226 O   0  0  0  0  0  0  0  0  0  0  0  0
   34.4188   12.8675    2.9107 C   0  0  0  0  0  0  0  0  0  0  0  0
   35.0178   14.1691    2.4007 C   0  0  0  0  0  0  0  0  0  0  0  0
   36.3550   13.7179    1.8773 C   0  0  0  0  0  0  0  0  0  0  0  0
   36.7281   12.6491    2.8791 C   0  0  0  0  0  0  0  0  0  0  0  0
   35.5065   11.9893    3.2391 O   0  0  0  0  0  0  0  0  0  0  0  0
   31.4947   12.7550    6.3025 C   0  0  0  0  0  0  0  0  0  0  0  0
   30.5291   12.5114    7.2712 C   0  0  0  0  0  0  0  0  0  0  0  0
   29.6257   13.5136    7.4678 O   0  0  0  0  0  0  0  0  0  0  0  0
   29.3562   13.8514    8.8225 C   0  0  0  0  0  0  0  0  0  0  0  0
   30.5335   14.4550    9.6241 C   0  0  0  0  0  0  0  0  0  0  0  0
   31.7063   14.3852    9.2489 O   0  0  0  0  0  0  0  0  0  0  0  0
   30.1941   15.1837   10.7612 N   0  0  0  0  0  0  0  0  0  0  0  0
   29.1178   14.7314   11.6223 C   0  0  0  0  0  0  0  0  0  0  0  0
   31.2077   16.0045   11.4001 C   0  0  0  0  0  0  0  0  0  0  0  0
   30.4649   11.2702    7.8771 C   0  0  0  0  0  0  0  0  0  0  0  0
   30.1825    8.5027    7.7843 H   0  0  0  0  0  0  0  0  0  0  0  0
   31.9276    8.1964    7.7492 H   0  0  0  0  0  0  0  0  0  0  0  0
   31.1645    8.9210    9.1777 H   0  0  0  0  0  0  0  0  0  0  0  0
   33.0423    9.7398    6.2622 H   0  0  0  0  0  0  0  0  0  0  0  0
   34.0518   11.2655    4.7393 H   0  0  0  0  0  0  0  0  0  0  0  0
   33.8516   12.3774    2.1095 H   0  0  0  0  0  0  0  0  0  0  0  0
   34.3964   14.6504    1.6396 H   0  0  0  0  0  0  0  0  0  0  0  0
   35.1609   14.8876    3.2174 H   0  0  0  0  0  0  0  0  0  0  0  0
   37.0947   14.5197    1.8107 H   0  0  0  0  0  0  0  0  0  0  0  0
   36.2331   13.2741    0.8823 H   0  0  0  0  0  0  0  0  0  0  0  0
   37.1561   13.0858    3.7881 H   0  0  0  0  0  0  0  0  0  0  0  0
   37.4349   11.9196    2.4744 H   0  0  0  0  0  0  0  0  0  0  0  0
   31.4812   13.7297    5.8387 H   0  0  0  0  0  0  0  0  0  0  0  0
   28.8970   13.0131    9.3412 H   0  0  0  0  0  0  0  0  0  0  0  0
   28.5880   14.6331    8.7685 H   0  0  0  0  0  0  0  0  0  0  0  0
   28.8482   15.5151   12.3289 H   0  0  0  0  0  0  0  0  0  0  0  0
   29.4827   13.8804   12.1906 H   0  0  0  0  0  0  0  0  0  0  0  0
   28.2386   14.4342   11.0498 H   0  0  0  0  0  0  0  0  0  0  0  0
   30.7424   16.8767   11.8640 H   0  0  0  0  0  0  0  0  0  0  0  0
   31.9496   16.3540   10.6809 H   0  0  0  0  0  0  0  0  0  0  0  0
   31.7153   15.4270   12.1623 H   0  0  0  0  0  0  0  0  0  0  0  0
   29.6824   11.0534    8.5925 H   0  0  0  0  0  0  0  0  0  0  0  0
  1  2  1  0
  2  3  2  0
  3  4  1  0
  4  5  1  0
  5  6  1  0
  6  7  2  0
  6  8  1  0
  8  9  1  0
  9 10  1  0
 10 11  1  0
 11 12  1  0
  4 13  2  0
 13 14  1  0
 14 15  1  0
 15 16  1  0
 16 17  1  0
 17 18  2  0
 17 19  1  0
 19 20  1  0
 19 21  1  0
 14 22  2  0
 22  2  1  0
 12  8  1  0
  1 23  1  0
  1 24  1  0
  1 25  1  0
  3 26  1  0
  5 27  1  0
  8 28  1  0
  9 29  1  0
  9 30  1  0
 10 31  1  0
 10 32  1  0
 11 33  1  0
 11 34  1  0
 13 35  1  0
 16 36  1  0
 16 37  1  0
 20 38  1  0
 20 39  1  0
 20 40  1  0
 21 41  1  0
 21 42  1  0
 21 43  1  0
 22 44  1  0
M  END
