LIG
     RDKit          3D

 45 47  0  0  0  0  0  0  0  0999 V2000
   29.2019   13.7968    4.9173 C   0  0  0  0  0  0  0  0  0  0  0  0
   30.6533   13.5026    5.1242 C   0  0  0  0  0  0  0  0  0  0  0  0
   31.5807   13.9642    4.1946 C   0  0  0  0  0  0  0  0  0  0  0  0
   32.9315   13.6613    4.3390 C   0  0  0  0  0  0  0  0  0  0  0  0
   33.3800   12.8314    5.3583 C   0  0  0  0  0  0  0  0  0  0  0  0
   34.7163   12.4467    5.5057 N   0  0  0  0  0  0  0  0  0  0  0  0
   35.7650   12.4182    4.6379 C   0  0  0  0  0  0  0  0  0  0  0  0
   36.8990   12.3139    5.1252 O   0  0  0  0  0  0  0  0  0  0  0  0
   35.6300   12.4317    3.0985 C   0  0  0  0  0  0  0  0  0  0  0  0
   36.0719   13.7558    2.4958 C   0  0  0  0  0  0  0  0  0  0  0  0
   35.5831   13.6290    1.0748 C   0  0  0  0  0  0  0  0  0  0  0  0
   34.3208   12.8059    1.2161 C   0  0  0  0  0  0  0  0  0  0  0  0
   34.4133   12.0736    2.4483 O   0  0  0  0  0  0  0  0  0  0  0  0
   32.4635   12.3991    6.3165 C   0  0  0  0  0  0  0  0  0  0  0  0
   31.1175   12.7583    6.2099 C   0  0  0  0  0  0  0  0  0  0  0  0
   30.2027   12.1991    7.0425 O   0  0  0  0  0  0  0  0  0  0  0  0
   30.0568   12.8435    8.2781 C   0  0  0  0  0  0  0  0  0  0  0  0
   28.7863   13.6971    8.3035 C   0  0  0  0  0  0  0  0  0  0  0  0
   28.8879   14.4673    9.5980 C   0  0  0  0  0  0  0  0  0  0  0  0
   30.2999   14.6975    9.7527 N   0  0  0  0  0  0  0  0  0  0  0  0
   30.8452   15.3559   10.9149 C   0  0  0  0  0  0  0  0  0  0  0  0
   31.0483   13.7572    9.0358 C   0  0  0  0  0  0  0  0  0  0  0  0
   32.2637   13.6504    9.0823 O   0  0  0  0  0  0  0  0  0  0  0  0
   28.9373   13.7019    3.8587 H   0  0  0  0  0  0  0  0  0  0  0  0
   28.5469   13.1235    5.4744 H   0  0  0  0  0  0  0  0  0  0  0  0
   28.9902   14.8188    5.2350 H   0  0  0  0  0  0  0  0  0  0  0  0
   31.2679   14.5352    3.3244 H   0  0  0  0  0  0  0  0  0  0  0  0
   33.6157   14.1032    3.6307 H   0  0  0  0  0  0  0  0  0  0  0  0
   35.0153   12.1710    6.4431 H   0  0  0  0  0  0  0  0  0  0  0  0
   36.3412   11.6585    2.7705 H   0  0  0  0  0  0  0  0  0  0  0  0
   35.5982   14.6085    2.9924 H   0  0  0  0  0  0  0  0  0  0  0  0
   37.1544   13.9053    2.5591 H   0  0  0  0  0  0  0  0  0  0  0  0
   35.4130   14.5898    0.5817 H   0  0  0  0  0  0  0  0  0  0  0  0
   36.3188   13.0746    0.4797 H   0  0  0  0  0  0  0  0  0  0  0  0
   34.1889   12.1052    0.3864 H   0  0  0  0  0  0  0  0  0  0  0  0
   33.4332   13.4444    1.2675 H   0  0  0  0  0  0  0  0  0  0  0  0
   32.7807   11.7472    7.1248 H   0  0  0  0  0  0  0  0  0  0  0  0
   29.9067   12.0039    8.9532 H   0  0  0  0  0  0  0  0  0  0  0  0
   27.8741   13.1008    8.2250 H   0  0  0  0  0  0  0  0  0  0  0  0
   28.7803   14.4056    7.4706 H   0  0  0  0  0  0  0  0  0  0  0  0
   28.3438   15.4106    9.5403 H   0  0  0  0  0  0  0  0  0  0  0  0
   28.5179   13.8879   10.4485 H   0  0  0  0  0  0  0  0  0  0  0  0
   31.9236   15.2011   10.9759 H   0  0  0  0  0  0  0  0  0  0  0  0
   30.3745   14.9426   11.8099 H   0  0  0  0  0  0  0  0  0  0  0  0
   30.6638   16.4264   10.8554 H   0  0  0  0  0  0  0  0  0  0  0  0
  1  2  1  0
  2  3  2  0
  3  4  1  0
  4  5  2  0
  5  6  1  0
  6  7  1  0
  7  8  2  0
  7  9  1  0
  9 10  1  0
 10 11  1  0
 11 12  1  0
 12 13  1  0
  5 14  1  0
 14 15  2  0
 15 16  1  0
 16 17  1  0
 17 18  1  0
 18 19  1  0
 19 20  1  0
 20 21  1  0
 20 22  1  0
 22 23  2  0
 15  2  1  0
 22 17  1  0
 13  9  1  0
  1 24  1  0
  1 25  1  0
  1 26  1  0
  3 27  1  0
  4 28  1  0
  6 29  1  0
  9 30  1  0
 10 31  1  0
 10 32  1  0
 11 33  1  0
 11 34  1  0
 12 35  1  0
 12 36  1  0
 14 37  1  0
 17 38  1  0
 18 39  1  0
 18 40  1  0
 19 41  1  0
 19 42  1  0
 21 43  1  0
 21 44  1  0
 21 45  1  0
M  END
