LIG
     RDKit          3D

 31 31  0  0  0  0  0  0  0  0999 V2000
   32.5658    9.4007    6.5108 C   0  0  0  0  0  0  0  0  0  0  0  0
   33.0352   10.6451    6.1229 C   0  0  0  0  0  0  0  0  0  0  0  0
   32.5239   11.7767    6.7501 C   0  0  0  0  0  0  0  0  0  0  0  0
   33.2278   12.9827    6.5883 N   0  0  0  0  0  0  0  0  0  0  0  0
   33.9379   13.4668    7.6914 C   0  0  0  0  0  0  0  0  0  0  0  0
   33.7954   13.0897    8.8559 O   0  0  0  0  0  0  0  0  0  0  0  0
   34.9837   14.5143    7.3033 C   0  0  0  0  0  0  0  0  0  0  0  0
   34.9369   14.8836    5.9300 O   0  0  0  0  0  0  0  0  0  0  0  0
   31.4611   11.6559    7.6578 C   0  0  0  0  0  0  0  0  0  0  0  0
   30.6784   12.7266    8.1199 N   0  0  0  0  0  0  0  0  0  0  0  0
   29.7057   13.1279    7.2104 C   0  0  0  0  0  0  0  0  0  0  0  0
   29.8272   13.1222    5.9869 O   0  0  0  0  0  0  0  0  0  0  0  0
   28.4176   13.5379    7.8531 C   0  0  0  0  0  0  0  0  0  0  0  0
   28.4574   14.9619    8.0901 C   0  0  0  0  0  0  0  0  0  0  0  0
   28.4865   16.0908    8.3365 N   0  0  0  0  0  0  0  0  0  0  0  0
   31.0113   10.4209    8.0572 C   0  0  0  0  0  0  0  0  0  0  0  0
   31.5769    9.3006    7.5021 C   0  0  0  0  0  0  0  0  0  0  0  0
   31.1443    8.0217    8.0844 C   0  0  0  0  0  0  0  0  0  0  0  0
   33.0239    8.5085    6.0969 H   0  0  0  0  0  0  0  0  0  0  0  0
   33.8654   10.7126    5.4267 H   0  0  0  0  0  0  0  0  0  0  0  0
   33.7845   13.0954    5.7436 H   0  0  0  0  0  0  0  0  0  0  0  0
   35.9770   14.1145    7.5218 H   0  0  0  0  0  0  0  0  0  0  0  0
   34.7930   15.3914    7.9186 H   0  0  0  0  0  0  0  0  0  0  0  0
   35.0832   15.8560    5.8837 H   0  0  0  0  0  0  0  0  0  0  0  0
   30.3072   12.5601    9.0556 H   0  0  0  0  0  0  0  0  0  0  0  0
   28.2575   12.9901    8.7856 H   0  0  0  0  0  0  0  0  0  0  0  0
   27.5958   13.2673    7.1818 H   0  0  0  0  0  0  0  0  0  0  0  0
   30.2147   10.3136    8.7868 H   0  0  0  0  0  0  0  0  0  0  0  0
   31.6356    7.8848    9.0496 H   0  0  0  0  0  0  0  0  0  0  0  0
   31.4347    7.2540    7.3893 H   0  0  0  0  0  0  0  0  0  0  0  0
   30.0602    7.9794    8.2317 H   0  0  0  0  0  0  0  0  0  0  0  0
  1  2  2  0
  2  3  1  0
  3  4  1  0
  4  5  1  0
  5  6  2  0
  5  7  1  0
  7  8  1  0
  3  9  2  0
  9 10  1  0
 10 11  1  0
 11 12  2  0
 11 13  1  0
 13 14  1  0
 14 15  3  0
  9 16  1  0
 16 17  2  0
 17 18  1  0
 17  1  1  0
  1 19  1  0
  2 20  1  0
  4 21  1  0
  7 22  1  0
  7 23  1  0
  8 24  1  0
 10 25  1  0
 13 26  1  0
 13 27  1  0
 16 28  1  0
 18 29  1  0
 18 30  1  0
 18 31  1  0
M  END
