LIG
     RDKit          3D

 28 28  0  0  0  0  0  0  0  0999 V2000
   30.6952   15.7110    5.9114 C   0  0  0  0  0  0  0  0  0  0  0  0
   30.6365   14.2248    5.7013 C   0  0  0  0  0  0  0  0  0  0  0  0
   29.7801   13.7212    4.9831 O   0  0  0  0  0  0  0  0  0  0  0  0
   31.6868   13.5650    6.3005 N   0  0  0  0  0  0  0  0  0  0  0  0
   32.0522   12.2031    6.1528 C   0  0  0  0  0  0  0  0  0  0  0  0
   31.1720   11.2016    5.7552 C   0  0  0  0  0  0  0  0  0  0  0  0
   31.5457    9.8551    5.8029 C   0  0  0  0  0  0  0  0  0  0  0  0
   32.8387    9.5077    6.1612 C   0  0  0  0  0  0  0  0  0  0  0  0
   33.7512   10.5082    6.4725 C   0  0  0  0  0  0  0  0  0  0  0  0
   35.0282   10.0940    6.6994 O   0  0  0  0  0  0  0  0  0  0  0  0
   33.3686   11.8548    6.4847 C   0  0  0  0  0  0  0  0  0  0  0  0
   34.2440   12.9340    6.7010 N   0  0  0  0  0  0  0  0  0  0  0  0
   35.2332   13.0227    7.6406 C   0  0  0  0  0  0  0  0  0  0  0  0
   35.6140   12.0720    8.3183 O   0  0  0  0  0  0  0  0  0  0  0  0
   35.8614   14.4039    7.7739 C   0  0  0  0  0  0  0  0  0  0  0  0
   34.9443   15.7180    6.9045 S   0  0  0  0  0  0  0  0  0  0  0  0
   31.1477   16.1495    5.0147 H   0  0  0  0  0  0  0  0  0  0  0  0
   31.3323   15.9905    6.7528 H   0  0  0  0  0  0  0  0  0  0  0  0
   29.7066   16.1523    6.0250 H   0  0  0  0  0  0  0  0  0  0  0  0
   32.2788   14.1259    6.8976 H   0  0  0  0  0  0  0  0  0  0  0  0
   30.1779   11.4553    5.4120 H   0  0  0  0  0  0  0  0  0  0  0  0
   30.8418    9.0752    5.5299 H   0  0  0  0  0  0  0  0  0  0  0  0
   33.1501    8.4670    6.1728 H   0  0  0  0  0  0  0  0  0  0  0  0
   35.4030   10.6931    7.3827 H   0  0  0  0  0  0  0  0  0  0  0  0
   33.9931   13.8116    6.2579 H   0  0  0  0  0  0  0  0  0  0  0  0
   36.8708   14.3528    7.3554 H   0  0  0  0  0  0  0  0  0  0  0  0
   35.9226   14.6624    8.8349 H   0  0  0  0  0  0  0  0  0  0  0  0
   34.1723   16.0687    7.9467 H   0  0  0  0  0  0  0  0  0  0  0  0
  1  2  1  0
  2  3  2  0
  2  4  1  0
  4  5  1  0
  5  6  2  0
  6  7  1  0
  7  8  2  0
  8  9  1  0
  9 10  1  0
  9 11  2  0
 11 12  1  0
 12 13  1  0
 13 14  2  0
 13 15  1  0
 15 16  1  0
 11  5  1  0
  1 17  1  0
  1 18  1  0
  1 19  1  0
  4 20  1  0
  6 21  1  0
  7 22  1  0
  8 23  1  0
 10 24  1  0
 12 25  1  0
 15 26  1  0
 15 27  1  0
 16 28  1  0
M  END
