A71EV2A-x0310A
     RDKit          3D

 14 14  0  0  0  0  0  0  0  0999 V2000
   12.5120   17.5010   23.1060 N   0  0  0  0  0  0  0  0  0  0  0  0
   12.4880   16.4120   22.7810 C   0  0  0  0  0  0  0  0  0  0  0  0
   12.3600   15.0170   22.3670 C   0  0  0  0  0  0  0  0  0  0  0  0
   11.3990   14.2740   23.2750 C   0  0  0  0  0  0  0  0  0  0  0  0
   11.2230   14.6130   24.4310 O   0  0  0  0  0  0  0  0  0  0  0  0
   10.7230   13.2450   22.7110 N   0  0  0  0  0  0  0  0  0  0  0  0
    9.8310   12.4480   23.4210 C   0  0  0  0  0  0  0  0  0  0  0  0
    9.8160   11.0360   23.3360 C   0  0  0  0  0  0  0  0  0  0  0  0
   10.6930   10.1090   22.5610 C   0  0  0  0  0  0  0  0  0  0  0  0
    8.8410   12.8070   24.2820 C   0  0  0  0  0  0  0  0  0  0  0  0
    8.3930   14.1590   24.7240 C   0  0  0  0  0  0  0  0  0  0  0  0
    8.2860   11.6650   24.6900 N   0  0  0  0  0  0  0  0  0  0  0  0
    8.8580   10.5690   24.1150 N   0  0  0  0  0  0  0  0  0  0  0  0
    7.2450   11.4810   25.6900 C   0  0  0  0  0  0  0  0  0  0  0  0
  9  8  1  0
  8 13  2  0
 13 12  1  0
 14 12  1  0
 12 10  1  0
 11 10  1  0
 10  7  2  0
  8  7  1  0
  7  6  1  0
  6  4  1  0
  5  4  2  0
  4  3  1  0
  3  2  1  0
  2  1  3  0
M  END
