A71EV2A-x0922A
     RDKit          3D

 14 14  0  0  0  0  0  0  0  0999 V2000
    8.4390   12.4430   22.1100 O   0  0  0  0  0  0  0  0  0  0  0  0
    9.6180   12.7430   22.2270 C   0  0  0  0  0  0  0  0  0  0  0  0
   10.0860   13.9300   21.8070 N   0  0  0  0  0  0  0  0  0  0  0  0
    9.2030   14.9010   21.1670 C   0  0  0  0  0  0  0  0  0  0  0  0
   11.4850   14.3340   21.9100 C   0  0  0  0  0  0  0  0  0  0  0  0
   10.5950   11.7590   22.8490 C   0  0  0  0  0  0  0  0  0  0  0  0
    9.9810   10.4820   23.0280 O   0  0  0  0  0  0  0  0  0  0  0  0
    9.1400   10.2820   24.0960 C   0  0  0  0  0  0  0  0  0  0  0  0
    8.7600    8.9510   24.2670 C   0  0  0  0  0  0  0  0  0  0  0  0
    9.3600    7.8530   23.4280 C   0  0  0  0  0  0  0  0  0  0  0  0
    7.8390    8.6640   25.2700 C   0  0  0  0  0  0  0  0  0  0  0  0
    7.3350    9.6580   26.0870 C   0  0  0  0  0  0  0  0  0  0  0  0
    7.7390   10.9630   25.9140 C   0  0  0  0  0  0  0  0  0  0  0  0
    8.6430   11.2870   24.9170 C   0  0  0  0  0  0  0  0  0  0  0  0
  5  3  1  0
  4  3  1  0
  3  2  1  0
  2  1  2  0
  6  2  1  0
  7  6  1  0
  8  7  1  0
  8 14  2  0
 14 13  1  0
 13 12  2  0
 12 11  1  0
 11  9  2  0
  9  8  1  0
 10  9  1  0
M  END
