LIG
     RDKit          3D

 42 43  0  0  0  0  0  0  0  0999 V2000
   35.0205    8.8670    7.4015 C   0  0  0  0  0  0  0  0  0  0  0  0
   33.9354    9.7193    6.8291 C   0  0  0  0  0  0  0  0  0  0  0  0
   32.6546    9.1869    6.5859 C   0  0  0  0  0  0  0  0  0  0  0  0
   31.5959   10.0000    6.1698 C   0  0  0  0  0  0  0  0  0  0  0  0
   31.8636   11.3262    5.9167 C   0  0  0  0  0  0  0  0  0  0  0  0
   30.9585   12.3438    5.5819 N   0  0  0  0  0  0  0  0  0  0  0  0
   31.1518   13.5545    6.2642 C   0  0  0  0  0  0  0  0  0  0  0  0
   31.5966   13.5663    7.4111 O   0  0  0  0  0  0  0  0  0  0  0  0
   30.8698   14.8467    5.5930 C   0  0  0  0  0  0  0  0  0  0  0  0
   29.6032   14.9162    4.9152 C   0  0  0  0  0  0  0  0  0  0  0  0
   28.5951   15.0094    4.3539 N   0  0  0  0  0  0  0  0  0  0  0  0
   33.1596   11.7872    6.0014 C   0  0  0  0  0  0  0  0  0  0  0  0
   34.1441   11.0746    6.6177 C   0  0  0  0  0  0  0  0  0  0  0  0
   35.2519   11.6958    7.0960 O   0  0  0  0  0  0  0  0  0  0  0  0
   35.4466   13.0345    6.6798 C   0  0  0  0  0  0  0  0  0  0  0  0
   34.5578   14.2602    7.0779 C   0  0  0  0  0  0  0  0  0  0  0  0
   34.0872   14.3887    8.2070 O   0  0  0  0  0  0  0  0  0  0  0  0
   34.4211   15.2867    6.1289 N   0  0  0  0  0  0  0  0  0  0  0  0
   34.4632   16.6288    6.7059 C   0  0  0  0  0  0  0  0  0  0  0  0
   35.9382   17.0624    6.7703 C   0  0  0  0  0  0  0  0  0  0  0  0
   36.5442   17.0320    5.4587 O   0  0  0  0  0  0  0  0  0  0  0  0
   36.4570   15.7334    4.8477 C   0  0  0  0  0  0  0  0  0  0  0  0
   35.0003   15.2655    4.7842 C   0  0  0  0  0  0  0  0  0  0  0  0
   34.8225    7.8048    7.2236 H   0  0  0  0  0  0  0  0  0  0  0  0
   35.9833    9.0940    6.9316 H   0  0  0  0  0  0  0  0  0  0  0  0
   35.1028    9.0288    8.4807 H   0  0  0  0  0  0  0  0  0  0  0  0
   32.4556    8.1437    6.7888 H   0  0  0  0  0  0  0  0  0  0  0  0
   30.6087    9.5755    6.0872 H   0  0  0  0  0  0  0  0  0  0  0  0
   30.0371   12.1126    5.2335 H   0  0  0  0  0  0  0  0  0  0  0  0
   30.9508   15.6565    6.3238 H   0  0  0  0  0  0  0  0  0  0  0  0
   31.6791   15.0112    4.8717 H   0  0  0  0  0  0  0  0  0  0  0  0
   33.3463   12.7859    5.6414 H   0  0  0  0  0  0  0  0  0  0  0  0
   35.6403   12.9996    5.6064 H   0  0  0  0  0  0  0  0  0  0  0  0
   36.4247   13.3075    7.1013 H   0  0  0  0  0  0  0  0  0  0  0  0
   33.8963   17.2925    6.0431 H   0  0  0  0  0  0  0  0  0  0  0  0
   34.0067   16.6660    7.6995 H   0  0  0  0  0  0  0  0  0  0  0  0
   36.0098   18.0894    7.1409 H   0  0  0  0  0  0  0  0  0  0  0  0
   36.5209   16.4182    7.4390 H   0  0  0  0  0  0  0  0  0  0  0  0
   36.8705   15.8128    3.8377 H   0  0  0  0  0  0  0  0  0  0  0  0
   37.0873   15.0410    5.4152 H   0  0  0  0  0  0  0  0  0  0  0  0
   34.4135   15.9658    4.1770 H   0  0  0  0  0  0  0  0  0  0  0  0
   34.9006   14.2837    4.3183 H   0  0  0  0  0  0  0  0  0  0  0  0
  1  2  1  0
  2  3  2  0
  3  4  1  0
  4  5  2  0
  5  6  1  0
  6  7  1  0
  7  8  2  0
  7  9  1  0
  9 10  1  0
 10 11  3  0
  5 12  1  0
 12 13  2  0
 13 14  1  0
 14 15  1  0
 15 16  1  0
 16 17  2  0
 16 18  1  0
 18 19  1  0
 19 20  1  0
 20 21  1  0
 21 22  1  0
 22 23  1  0
 13  2  1  0
 23 18  1  0
  1 24  1  0
  1 25  1  0
  1 26  1  0
  3 27  1  0
  4 28  1  0
  6 29  1  0
  9 30  1  0
  9 31  1  0
 12 32  1  0
 15 33  1  0
 15 34  1  0
 19 35  1  0
 19 36  1  0
 20 37  1  0
 20 38  1  0
 22 39  1  0
 22 40  1  0
 23 41  1  0
 23 42  1  0
M  END
