LIG
     RDKit          3D

 27 27  0  0  0  0  0  0  0  0999 V2000
   29.2121   14.5611    8.7501 C   0  0  0  0  0  0  0  0  0  0  0  0
   29.5930   13.3604    7.9310 C   0  0  0  0  0  0  0  0  0  0  0  0
   28.7455   12.7669    7.2677 O   0  0  0  0  0  0  0  0  0  0  0  0
   30.9412   13.0557    7.9671 N   0  0  0  0  0  0  0  0  0  0  0  0
   31.4634   11.8263    7.5105 C   0  0  0  0  0  0  0  0  0  0  0  0
   30.7925   10.6390    7.8148 C   0  0  0  0  0  0  0  0  0  0  0  0
   31.2936    9.4101    7.3917 C   0  0  0  0  0  0  0  0  0  0  0  0
   32.4143    9.3698    6.5706 C   0  0  0  0  0  0  0  0  0  0  0  0
   33.0765   10.5446    6.2514 C   0  0  0  0  0  0  0  0  0  0  0  0
   34.1807   10.4784    5.4918 F   0  0  0  0  0  0  0  0  0  0  0  0
   32.6655   11.7661    6.7878 C   0  0  0  0  0  0  0  0  0  0  0  0
   33.5007   12.8887    6.5889 N   0  0  0  0  0  0  0  0  0  0  0  0
   34.1075   13.4812    7.6886 C   0  0  0  0  0  0  0  0  0  0  0  0
   33.8187   13.2376    8.8597 O   0  0  0  0  0  0  0  0  0  0  0  0
   35.2096   14.4630    7.3020 C   0  0  0  0  0  0  0  0  0  0  0  0
   35.1331   14.8897    5.9497 O   0  0  0  0  0  0  0  0  0  0  0  0
   28.9141   15.3740    8.0829 H   0  0  0  0  0  0  0  0  0  0  0  0
   30.0425   14.8982    9.3766 H   0  0  0  0  0  0  0  0  0  0  0  0
   28.3764   14.2970    9.4043 H   0  0  0  0  0  0  0  0  0  0  0  0
   31.6020   13.8152    8.0590 H   0  0  0  0  0  0  0  0  0  0  0  0
   29.8910   10.6529    8.4205 H   0  0  0  0  0  0  0  0  0  0  0  0
   30.7855    8.4901    7.6782 H   0  0  0  0  0  0  0  0  0  0  0  0
   32.8054    8.4262    6.2112 H   0  0  0  0  0  0  0  0  0  0  0  0
   34.1637   12.8176    5.8161 H   0  0  0  0  0  0  0  0  0  0  0  0
   36.1768   13.9803    7.4632 H   0  0  0  0  0  0  0  0  0  0  0  0
   35.1159   15.3245    7.9588 H   0  0  0  0  0  0  0  0  0  0  0  0
   35.1699   15.8732    5.9350 H   0  0  0  0  0  0  0  0  0  0  0  0
  1  2  1  0
  2  3  2  0
  2  4  1  0
  4  5  1  0
  5  6  2  0
  6  7  1  0
  7  8  2  0
  8  9  1  0
  9 10  1  0
  9 11  2  0
 11 12  1  0
 12 13  1  0
 13 14  2  0
 13 15  1  0
 15 16  1  0
 11  5  1  0
  1 17  1  0
  1 18  1  0
  1 19  1  0
  4 20  1  0
  6 21  1  0
  7 22  1  0
  8 23  1  0
 12 24  1  0
 15 25  1  0
 15 26  1  0
 16 27  1  0
M  END
