LIG
     RDKit          3D

 38 39  0  0  0  0  0  0  0  0999 V2000
   32.1546    8.0828    7.5355 C   0  0  0  0  0  0  0  0  0  0  0  0
   32.1094    9.4964    7.1427 C   0  0  0  0  0  0  0  0  0  0  0  0
   31.2242   10.2686    7.8673 C   0  0  0  0  0  0  0  0  0  0  0  0
   31.1285   11.5938    7.5579 C   0  0  0  0  0  0  0  0  0  0  0  0
   30.1066   12.3115    8.1681 N   0  0  0  0  0  0  0  0  0  0  0  0
   29.2417   13.0108    7.3518 C   0  0  0  0  0  0  0  0  0  0  0  0
   29.3243   13.1124    6.1293 O   0  0  0  0  0  0  0  0  0  0  0  0
   28.1255   13.6493    8.0911 C   0  0  0  0  0  0  0  0  0  0  0  0
   28.3861   15.0671    8.1727 C   0  0  0  0  0  0  0  0  0  0  0  0
   28.5726   16.2010    8.2935 N   0  0  0  0  0  0  0  0  0  0  0  0
   31.9429   12.1662    6.5844 C   0  0  0  0  0  0  0  0  0  0  0  0
   32.8232   11.3879    5.8414 C   0  0  0  0  0  0  0  0  0  0  0  0
   33.5170   11.8922    4.7326 N   0  0  0  0  0  0  0  0  0  0  0  0
   33.4278   13.1931    4.2582 C   0  0  0  0  0  0  0  0  0  0  0  0
   33.1481   14.1881    4.9191 O   0  0  0  0  0  0  0  0  0  0  0  0
   33.5516   13.2094    2.7294 C   0  0  0  0  0  0  0  0  0  0  0  0
   33.5894   14.5936    2.1088 C   0  0  0  0  0  0  0  0  0  0  0  0
   35.0468   14.7612    1.7741 C   0  0  0  0  0  0  0  0  0  0  0  0
   35.4644   13.3504    1.4308 C   0  0  0  0  0  0  0  0  0  0  0  0
   34.7124   12.4872    2.2932 O   0  0  0  0  0  0  0  0  0  0  0  0
   32.9077   10.0321    6.1237 C   0  0  0  0  0  0  0  0  0  0  0  0
   33.0598    7.6557    7.1390 H   0  0  0  0  0  0  0  0  0  0  0  0
   32.1697    8.0004    8.6266 H   0  0  0  0  0  0  0  0  0  0  0  0
   31.2715    7.5622    7.2076 H   0  0  0  0  0  0  0  0  0  0  0  0
   30.5872    9.8110    8.6205 H   0  0  0  0  0  0  0  0  0  0  0  0
   29.7288   11.9234    9.0347 H   0  0  0  0  0  0  0  0  0  0  0  0
   28.0097   13.2180    9.0881 H   0  0  0  0  0  0  0  0  0  0  0  0
   27.2131   13.4494    7.5255 H   0  0  0  0  0  0  0  0  0  0  0  0
   31.8245   13.2243    6.3854 H   0  0  0  0  0  0  0  0  0  0  0  0
   34.0312   11.2437    4.1447 H   0  0  0  0  0  0  0  0  0  0  0  0
   32.6689   12.6759    2.3526 H   0  0  0  0  0  0  0  0  0  0  0  0
   33.2004   15.3969    2.7400 H   0  0  0  0  0  0  0  0  0  0  0  0
   33.0043   14.5938    1.1806 H   0  0  0  0  0  0  0  0  0  0  0  0
   35.5898   15.1037    2.6632 H   0  0  0  0  0  0  0  0  0  0  0  0
   35.2330   15.4712    0.9642 H   0  0  0  0  0  0  0  0  0  0  0  0
   36.5341   13.1785    1.5785 H   0  0  0  0  0  0  0  0  0  0  0  0
   35.2080   13.1004    0.3955 H   0  0  0  0  0  0  0  0  0  0  0  0
   33.5805    9.3843    5.5678 H   0  0  0  0  0  0  0  0  0  0  0  0
  1  2  1  0
  2  3  2  0
  3  4  1  0
  4  5  1  0
  5  6  1  0
  6  7  2  0
  6  8  1  0
  8  9  1  0
  9 10  3  0
  4 11  2  0
 11 12  1  0
 12 13  1  0
 13 14  1  0
 14 15  2  0
 14 16  1  0
 16 17  1  0
 17 18  1  0
 18 19  1  0
 19 20  1  0
 12 21  2  0
 21  2  1  0
 20 16  1  0
  1 22  1  0
  1 23  1  0
  1 24  1  0
  3 25  1  0
  5 26  1  0
  8 27  1  0
  8 28  1  0
 11 29  1  0
 13 30  1  0
 16 31  1  0
 17 32  1  0
 17 33  1  0
 18 34  1  0
 18 35  1  0
 19 36  1  0
 19 37  1  0
 21 38  1  0
M  END
