LIG
     RDKit          3D

 45 46  0  0  0  0  0  0  0  0999 V2000
   30.4930    8.5967    8.9516 C   0  0  0  0  0  0  0  0  0  0  0  0
   31.1888    9.4942    7.9771 C   0  0  0  0  0  0  0  0  0  0  0  0
   32.2113    8.9594    7.1758 C   0  0  0  0  0  0  0  0  0  0  0  0
   32.9566    9.7411    6.2742 C   0  0  0  0  0  0  0  0  0  0  0  0
   34.1176    9.1789    5.5143 C   0  0  0  0  0  0  0  0  0  0  0  0
   32.5791   11.0535    6.0699 C   0  0  0  0  0  0  0  0  0  0  0  0
   33.2547   11.7671    5.1254 O   0  0  0  0  0  0  0  0  0  0  0  0
   32.8437   13.1116    4.9005 C   0  0  0  0  0  0  0  0  0  0  0  0
   33.4564   13.9552    5.9976 C   0  0  0  0  0  0  0  0  0  0  0  0
   33.0160   13.8922    7.1527 O   0  0  0  0  0  0  0  0  0  0  0  0
   34.5525   14.7305    5.6903 N   0  0  0  0  0  0  0  0  0  0  0  0
   35.4781   14.9147    6.7977 C   0  0  0  0  0  0  0  0  0  0  0  0
   36.5225   13.8013    6.6846 C   0  0  0  0  0  0  0  0  0  0  0  0
   37.2707   13.9654    5.4600 O   0  0  0  0  0  0  0  0  0  0  0  0
   36.3929   13.8126    4.3273 C   0  0  0  0  0  0  0  0  0  0  0  0
   35.2370   14.8156    4.3905 C   0  0  0  0  0  0  0  0  0  0  0  0
   31.5227   11.5543    6.7983 C   0  0  0  0  0  0  0  0  0  0  0  0
   30.8306   10.8108    7.7426 C   0  0  0  0  0  0  0  0  0  0  0  0
   29.8257   11.4837    8.4348 N   0  0  0  0  0  0  0  0  0  0  0  0
   29.1898   12.5963    7.9157 C   0  0  0  0  0  0  0  0  0  0  0  0
   28.9448   12.7570    6.7205 O   0  0  0  0  0  0  0  0  0  0  0  0
   28.8624   13.6101    8.9664 C   0  0  0  0  0  0  0  0  0  0  0  0
   28.6374   14.9087    8.3605 C   0  0  0  0  0  0  0  0  0  0  0  0
   28.4694   15.9714    7.9369 N   0  0  0  0  0  0  0  0  0  0  0  0
   30.0517    9.1489    9.7797 H   0  0  0  0  0  0  0  0  0  0  0  0
   31.2075    7.9079    9.4043 H   0  0  0  0  0  0  0  0  0  0  0  0
   29.7062    8.0272    8.4504 H   0  0  0  0  0  0  0  0  0  0  0  0
   32.4597    7.9104    7.2931 H   0  0  0  0  0  0  0  0  0  0  0  0
   34.5762    8.3520    6.0540 H   0  0  0  0  0  0  0  0  0  0  0  0
   33.7928    8.8235    4.5329 H   0  0  0  0  0  0  0  0  0  0  0  0
   34.9034    9.9267    5.3649 H   0  0  0  0  0  0  0  0  0  0  0  0
   31.7595   13.2541    4.8438 H   0  0  0  0  0  0  0  0  0  0  0  0
   33.1952   13.3752    3.9062 H   0  0  0  0  0  0  0  0  0  0  0  0
   34.9852   14.8851    7.7730 H   0  0  0  0  0  0  0  0  0  0  0  0
   35.9380   15.8879    6.6597 H   0  0  0  0  0  0  0  0  0  0  0  0
   37.2190   13.7961    7.5260 H   0  0  0  0  0  0  0  0  0  0  0  0
   36.0428   12.8226    6.6474 H   0  0  0  0  0  0  0  0  0  0  0  0
   36.9857   13.9761    3.4221 H   0  0  0  0  0  0  0  0  0  0  0  0
   36.0232   12.7807    4.3044 H   0  0  0  0  0  0  0  0  0  0  0  0
   35.6652   15.8157    4.3035 H   0  0  0  0  0  0  0  0  0  0  0  0
   34.5510   14.6983    3.5518 H   0  0  0  0  0  0  0  0  0  0  0  0
   31.2252   12.5812    6.6562 H   0  0  0  0  0  0  0  0  0  0  0  0
   29.5735   11.1691    9.3678 H   0  0  0  0  0  0  0  0  0  0  0  0
   27.9878   13.2792    9.5258 H   0  0  0  0  0  0  0  0  0  0  0  0
   29.7066   13.6988    9.6584 H   0  0  0  0  0  0  0  0  0  0  0  0
  1  2  1  0
  2  3  2  0
  3  4  1  0
  4  5  1  0
  4  6  2  0
  6  7  1  0
  7  8  1  0
  8  9  1  0
  9 10  2  0
  9 11  1  0
 11 12  1  0
 12 13  1  0
 13 14  1  0
 14 15  1  0
 15 16  1  0
  6 17  1  0
 17 18  2  0
 18 19  1  0
 19 20  1  0
 20 21  2  0
 20 22  1  0
 22 23  1  0
 23 24  3  0
 18  2  1  0
 16 11  1  0
  1 25  1  0
  1 26  1  0
  1 27  1  0
  3 28  1  0
  5 29  1  0
  5 30  1  0
  5 31  1  0
  8 32  1  0
  8 33  1  0
 12 34  1  0
 12 35  1  0
 13 36  1  0
 13 37  1  0
 15 38  1  0
 15 39  1  0
 16 40  1  0
 16 41  1  0
 17 42  1  0
 19 43  1  0
 22 44  1  0
 22 45  1  0
M  END
