LIG
     RDKit          3D

 38 39  0  0  0  0  0  0  0  0999 V2000
   28.6630   16.0941    8.0484 N   0  0  0  0  0  0  0  0  0  0  0  0
   28.4774   14.9537    8.1191 C   0  0  0  0  0  0  0  0  0  0  0  0
   28.2274   13.5331    8.2582 C   0  0  0  0  0  0  0  0  0  0  0  0
   29.3129   12.7458    7.6041 C   0  0  0  0  0  0  0  0  0  0  0  0
   29.5762   12.8766    6.4084 O   0  0  0  0  0  0  0  0  0  0  0  0
   29.9249   11.8279    8.4456 N   0  0  0  0  0  0  0  0  0  0  0  0
   30.9715   11.0517    7.9541 C   0  0  0  0  0  0  0  0  0  0  0  0
   30.9587    9.6750    8.0522 C   0  0  0  0  0  0  0  0  0  0  0  0
   31.9295    9.0088    7.3335 C   0  0  0  0  0  0  0  0  0  0  0  0
   32.8918    9.6166    6.5933 N   0  0  0  0  0  0  0  0  0  0  0  0
   32.9070   10.9593    6.6059 C   0  0  0  0  0  0  0  0  0  0  0  0
   33.9369   11.5551    5.9367 O   0  0  0  0  0  0  0  0  0  0  0  0
   33.4770   12.3474    4.8527 C   0  0  0  0  0  0  0  0  0  0  0  0
   33.3005   13.7959    5.2569 C   0  0  0  0  0  0  0  0  0  0  0  0
   32.2020   14.2240    5.5917 O   0  0  0  0  0  0  0  0  0  0  0  0
   34.4200   14.5845    5.3215 N   0  0  0  0  0  0  0  0  0  0  0  0
   35.0655   14.7165    6.6241 C   0  0  0  0  0  0  0  0  0  0  0  0
   36.3241   13.8534    6.6616 C   0  0  0  0  0  0  0  0  0  0  0  0
   37.2332   14.2579    5.6195 O   0  0  0  0  0  0  0  0  0  0  0  0
   36.6356   14.0120    4.3385 C   0  0  0  0  0  0  0  0  0  0  0  0
   35.3099   14.7602    4.1780 C   0  0  0  0  0  0  0  0  0  0  0  0
   32.0030   11.7080    7.3087 C   0  0  0  0  0  0  0  0  0  0  0  0
   28.1288   13.2695    9.3136 H   0  0  0  0  0  0  0  0  0  0  0  0
   27.3123   13.2587    7.7340 H   0  0  0  0  0  0  0  0  0  0  0  0
   29.3576   11.4464    9.2047 H   0  0  0  0  0  0  0  0  0  0  0  0
   30.1842    9.1255    8.5720 H   0  0  0  0  0  0  0  0  0  0  0  0
   31.9528    7.9251    7.3267 H   0  0  0  0  0  0  0  0  0  0  0  0
   34.2238   12.2766    4.0568 H   0  0  0  0  0  0  0  0  0  0  0  0
   32.5502   11.9730    4.4109 H   0  0  0  0  0  0  0  0  0  0  0  0
   34.3788   14.4200    7.4235 H   0  0  0  0  0  0  0  0  0  0  0  0
   35.3336   15.7626    6.7508 H   0  0  0  0  0  0  0  0  0  0  0  0
   36.8261   13.9349    7.6290 H   0  0  0  0  0  0  0  0  0  0  0  0
   36.0910   12.8001    6.5040 H   0  0  0  0  0  0  0  0  0  0  0  0
   36.4986   12.9313    4.2184 H   0  0  0  0  0  0  0  0  0  0  0  0
   37.3433   14.3374    3.5694 H   0  0  0  0  0  0  0  0  0  0  0  0
   34.8009   14.4567    3.2569 H   0  0  0  0  0  0  0  0  0  0  0  0
   35.5222   15.8274    4.0969 H   0  0  0  0  0  0  0  0  0  0  0  0
   32.0603   12.7855    7.3459 H   0  0  0  0  0  0  0  0  0  0  0  0
  1  2  3  0
  2  3  1  0
  3  4  1  0
  4  5  2  0
  4  6  1  0
  6  7  1  0
  7  8  2  0
  8  9  1  0
  9 10  2  0
 10 11  1  0
 11 12  1  0
 12 13  1  0
 13 14  1  0
 14 15  2  0
 14 16  1  0
 16 17  1  0
 17 18  1  0
 18 19  1  0
 19 20  1  0
 20 21  1  0
 11 22  2  0
 22  7  1  0
 21 16  1  0
  3 23  1  0
  3 24  1  0
  6 25  1  0
  8 26  1  0
  9 27  1  0
 13 28  1  0
 13 29  1  0
 17 30  1  0
 17 31  1  0
 18 32  1  0
 18 33  1  0
 20 34  1  0
 20 35  1  0
 21 36  1  0
 21 37  1  0
 22 38  1  0
M  END
