LIG
     RDKit          3D

 33 33  0  0  0  0  0  0  0  0999 V2000
   30.7444   15.6122   11.3754 C   0  0  0  0  0  0  0  0  0  0  0  0
   29.7820   14.9034   10.5469 N   0  0  0  0  0  0  0  0  0  0  0  0
   28.4881   14.6553   11.1324 C   0  0  0  0  0  0  0  0  0  0  0  0
   30.2869   14.0196    9.6104 C   0  0  0  0  0  0  0  0  0  0  0  0
   31.5086   13.9261    9.4759 O   0  0  0  0  0  0  0  0  0  0  0  0
   29.2928   13.2579    8.6844 C   0  0  0  0  0  0  0  0  0  0  0  0
   29.5112   11.8816    8.3963 O   0  0  0  0  0  0  0  0  0  0  0  0
   30.6068   11.5013    7.6982 C   0  0  0  0  0  0  0  0  0  0  0  0
   30.8442   10.1396    7.5445 C   0  0  0  0  0  0  0  0  0  0  0  0
   31.8636    9.6125    6.8110 N   0  0  0  0  0  0  0  0  0  0  0  0
   32.7700   10.4873    6.3329 C   0  0  0  0  0  0  0  0  0  0  0  0
   32.6786   11.8482    6.5549 C   0  0  0  0  0  0  0  0  0  0  0  0
   33.7590   12.7194    6.3534 N   0  0  0  0  0  0  0  0  0  0  0  0
   34.3037   13.3473    7.4767 C   0  0  0  0  0  0  0  0  0  0  0  0
   34.0379   13.0312    8.6387 O   0  0  0  0  0  0  0  0  0  0  0  0
   35.2847   14.4617    7.2024 C   0  0  0  0  0  0  0  0  0  0  0  0
   35.7439   14.6324    5.4573 S   0  0  0  0  0  0  0  0  0  0  0  0
   31.5288   12.3586    7.1394 C   0  0  0  0  0  0  0  0  0  0  0  0
   31.0652   14.9396   12.1614 H   0  0  0  0  0  0  0  0  0  0  0  0
   31.6178   15.9169   10.7929 H   0  0  0  0  0  0  0  0  0  0  0  0
   30.3076   16.4993   11.8308 H   0  0  0  0  0  0  0  0  0  0  0  0
   27.7240   15.0143   10.4410 H   0  0  0  0  0  0  0  0  0  0  0  0
   28.3294   13.5931   11.3021 H   0  0  0  0  0  0  0  0  0  0  0  0
   28.4240   15.1541   12.0995 H   0  0  0  0  0  0  0  0  0  0  0  0
   29.2303   13.8242    7.7451 H   0  0  0  0  0  0  0  0  0  0  0  0
   28.2836   13.3061    9.0935 H   0  0  0  0  0  0  0  0  0  0  0  0
   30.1732    9.4072    7.9891 H   0  0  0  0  0  0  0  0  0  0  0  0
   33.6316   10.0386    5.8517 H   0  0  0  0  0  0  0  0  0  0  0  0
   34.4893   12.4454    5.7048 H   0  0  0  0  0  0  0  0  0  0  0  0
   34.8294   15.3918    7.5401 H   0  0  0  0  0  0  0  0  0  0  0  0
   36.1876   14.2665    7.7862 H   0  0  0  0  0  0  0  0  0  0  0  0
   35.6164   15.9754    5.4098 H   0  0  0  0  0  0  0  0  0  0  0  0
   31.4368   13.4321    7.2260 H   0  0  0  0  0  0  0  0  0  0  0  0
  1  2  1  0
  2  3  1  0
  2  4  1  0
  4  5  2  0
  4  6  1  0
  6  7  1  0
  7  8  1  0
  8  9  2  0
  9 10  1  0
 10 11  2  0
 11 12  1  0
 12 13  1  0
 13 14  1  0
 14 15  2  0
 14 16  1  0
 16 17  1  0
 12 18  2  0
 18  8  1  0
  1 19  1  0
  1 20  1  0
  1 21  1  0
  3 22  1  0
  3 23  1  0
  3 24  1  0
  6 25  1  0
  6 26  1  0
  9 27  1  0
 11 28  1  0
 13 29  1  0
 16 30  1  0
 16 31  1  0
 17 32  1  0
 18 33  1  0
M  END
