LIG
     RDKit          3D

 40 41  0  0  0  0  0  0  0  0999 V2000
   30.1570    8.4110    8.0350 C   0  0  0  0  0  0  0  0  0  0  0  0
   31.0170    9.5590    7.5720 C   0  0  0  0  0  0  0  0  0  0  0  0
   30.7220   10.8640    7.9390 C   0  0  0  0  0  0  0  0  0  0  0  0
   31.5450   11.9340    7.6020 C   0  0  0  0  0  0  0  0  0  0  0  0
   31.1650   13.3330    8.0150 O   0  0  0  0  0  0  0  0  0  0  0  0
   30.0580   13.6540    8.5870 C   0  0  0  0  0  0  0  0  0  0  0  0
   28.5940   13.4330    8.1660 C   0  0  0  0  0  0  0  0  0  0  0  0
   27.8900   14.7750    8.3110 C   0  0  0  0  0  0  0  0  0  0  0  0
   28.8690   15.5850    9.0100 N   0  0  0  0  0  0  0  0  0  0  0  0
   28.4820   16.7650    9.7690 C   0  0  0  0  0  0  0  0  0  0  0  0
   30.1260   15.1410    8.9140 C   0  0  0  0  0  0  0  0  0  0  0  0
   31.1310   15.8110    9.0820 O   0  0  0  0  0  0  0  0  0  0  0  0
   32.7080   11.6650    6.8730 C   0  0  0  0  0  0  0  0  0  0  0  0
   33.6520   12.7090    6.6590 N   0  0  0  0  0  0  0  0  0  0  0  0
   34.4250   13.2280    7.6390 C   0  0  0  0  0  0  0  0  0  0  0  0
   34.9120   12.5690    8.5560 O   0  0  0  0  0  0  0  0  0  0  0  0
   34.6680   14.7180    7.5670 C   0  0  0  0  0  0  0  0  0  0  0  0
   35.0470   15.1300    6.2680 S   0  0  0  0  0  0  0  0  0  0  0  0
   33.0110   10.3720    6.4380 C   0  0  0  0  0  0  0  0  0  0  0  0
   34.1980   10.0910    5.5530 C   0  0  0  0  0  0  0  0  0  0  0  0
   32.1560    9.3390    6.8090 N   0  0  0  0  0  0  0  0  0  0  0  0
   29.1059    8.7104    8.0359 H   0  0  0  0  0  0  0  0  0  0  0  0
   29.4421    8.1276    7.2578 H   0  0  0  0  0  0  0  0  0  0  0  0
   30.2895    7.5515    7.3725 H   0  0  0  0  0  0  0  0  0  0  0  0
   29.8223   11.0553    8.5571 H   0  0  0  0  0  0  0  0  0  0  0  0
   30.0080   14.4661    7.0300 H   0  0  0  0  0  0  0  0  0  0  0  0
   28.5615   13.1171    7.1040 H   0  0  0  0  0  0  0  0  0  0  0  0
   28.0774   12.6496    8.7512 H   0  0  0  0  0  0  0  0  0  0  0  0
   26.9932   14.6970    8.9320 H   0  0  0  0  0  0  0  0  0  0  0  0
   27.6453   15.2235    7.3468 H   0  0  0  0  0  0  0  0  0  0  0  0
   27.7816   16.4614   10.5497 H   0  0  0  0  0  0  0  0  0  0  0  0
   27.4040   16.9182    9.6948 H   0  0  0  0  0  0  0  0  0  0  0  0
   28.7674   16.6224   10.8124 H   0  0  0  0  0  0  0  0  0  0  0  0
   33.5655   13.2151    5.8116 H   0  0  0  0  0  0  0  0  0  0  0  0
   33.7204   15.1987    8.0345 H   0  0  0  0  0  0  0  0  0  0  0  0
   35.4130   14.8936    8.4427 H   0  0  0  0  0  0  0  0  0  0  0  0
   33.8633   15.5232    5.6826 H   0  0  0  0  0  0  0  0  0  0  0  0
   34.5857    9.0829    5.7310 H   0  0  0  0  0  0  0  0  0  0  0  0
   35.0034   10.8005    5.7626 H   0  0  0  0  0  0  0  0  0  0  0  0
   35.0847    9.8832    6.1590 H   0  0  0  0  0  0  0  0  0  0  0  0
  1  2  1  0
  2  3  4  0
  3  4  4  0
  4  5  1  0
  5  6  1  0
  6  7  1  0
  7  8  1  0
  8  9  1  0
  9 10  1  0
  9 11  1  0
 11 12  2  0
  4 13  4  0
 13 14  1  0
 14 15  1  0
 15 16  2  0
 15 17  1  0
 17 18  1  0
 13 19  4  0
 19 20  1  0
 19 21  4  0
 21  2  4  0
 11  6  1  0
  1 22  1  0
  1 23  1  0
  1 24  1  0
  3 25  1  0
  6 26  1  0
  7 27  1  0
  7 28  1  0
  8 29  1  0
  8 30  1  0
 10 31  1  0
 10 32  1  0
 10 33  1  0
 14 34  1  0
 17 35  1  0
 17 36  1  0
 18 37  1  0
 20 38  1  0
 20 39  1  0
 20 40  1  0
M  END
