LIG
     RDKit          3D

 41 42  0  0  0  0  0  0  0  0999 V2000
   30.6299    8.4326    8.1783 C   0  0  0  0  0  0  0  0  0  0  0  0
   31.3308    9.5601    7.4964 C   0  0  0  0  0  0  0  0  0  0  0  0
   32.3893    9.3587    6.6071 C   0  0  0  0  0  0  0  0  0  0  0  0
   33.1384   10.4305    6.1103 C   0  0  0  0  0  0  0  0  0  0  0  0
   34.2592   10.1640    5.1502 C   0  0  0  0  0  0  0  0  0  0  0  0
   32.8375   11.7074    6.5933 C   0  0  0  0  0  0  0  0  0  0  0  0
   33.7534   12.7626    6.4387 N   0  0  0  0  0  0  0  0  0  0  0  0
   34.2499   13.3994    7.5782 C   0  0  0  0  0  0  0  0  0  0  0  0
   33.9553   13.0936    8.7393 O   0  0  0  0  0  0  0  0  0  0  0  0
   35.2113   14.5354    7.3060 C   0  0  0  0  0  0  0  0  0  0  0  0
   35.7348   14.6506    5.5719 S   0  0  0  0  0  0  0  0  0  0  0  0
   31.6773   11.9347    7.3473 C   0  0  0  0  0  0  0  0  0  0  0  0
   31.3564   13.2537    7.5724 O   0  0  0  0  0  0  0  0  0  0  0  0
   30.2588   13.4501    8.4097 C   0  0  0  0  0  0  0  0  0  0  0  0
   28.9365   13.3620    7.6399 C   0  0  0  0  0  0  0  0  0  0  0  0
   28.3485   14.7395    7.7844 C   0  0  0  0  0  0  0  0  0  0  0  0
   28.8710   15.2349    9.0293 N   0  0  0  0  0  0  0  0  0  0  0  0
   28.1347   14.8834   10.2032 C   0  0  0  0  0  0  0  0  0  0  0  0
   30.1969   14.7837    9.1264 C   0  0  0  0  0  0  0  0  0  0  0  0
   31.0746   15.3396    9.7688 O   0  0  0  0  0  0  0  0  0  0  0  0
   30.9358   10.8506    7.7998 C   0  0  0  0  0  0  0  0  0  0  0  0
   30.8747    8.4146    9.2439 H   0  0  0  0  0  0  0  0  0  0  0  0
   30.9615    7.5031    7.7351 H   0  0  0  0  0  0  0  0  0  0  0  0
   29.5458    8.5071    8.0638 H   0  0  0  0  0  0  0  0  0  0  0  0
   32.6801    8.3446    6.3499 H   0  0  0  0  0  0  0  0  0  0  0  0
   34.4406    9.0908    5.0288 H   0  0  0  0  0  0  0  0  0  0  0  0
   35.1956   10.6161    5.4850 H   0  0  0  0  0  0  0  0  0  0  0  0
   34.0033   10.5719    4.1668 H   0  0  0  0  0  0  0  0  0  0  0  0
   34.4562   12.6954    5.7099 H   0  0  0  0  0  0  0  0  0  0  0  0
   34.7157   15.4616    7.5881 H   0  0  0  0  0  0  0  0  0  0  0  0
   36.0948   14.3905    7.9327 H   0  0  0  0  0  0  0  0  0  0  0  0
   35.6881   15.9977    5.4938 H   0  0  0  0  0  0  0  0  0  0  0  0
   30.2781   12.7573    9.2465 H   0  0  0  0  0  0  0  0  0  0  0  0
   29.0462   13.0770    6.5887 H   0  0  0  0  0  0  0  0  0  0  0  0
   28.2785   12.6285    8.1161 H   0  0  0  0  0  0  0  0  0  0  0  0
   28.7148   15.3946    6.9877 H   0  0  0  0  0  0  0  0  0  0  0  0
   27.2580   14.7492    7.7779 H   0  0  0  0  0  0  0  0  0  0  0  0
   28.6619   15.1886   11.1110 H   0  0  0  0  0  0  0  0  0  0  0  0
   27.1581   15.3456   10.1169 H   0  0  0  0  0  0  0  0  0  0  0  0
   28.0175   13.7975   10.2703 H   0  0  0  0  0  0  0  0  0  0  0  0
   30.0649   10.9491    8.4355 H   0  0  0  0  0  0  0  0  0  0  0  0
  1  2  1  0
  2  3  2  0
  3  4  1  0
  4  5  1  0
  4  6  2  0
  6  7  1  0
  7  8  1  0
  8  9  2  0
  8 10  1  0
 10 11  1  0
  6 12  1  0
 12 13  1  0
 13 14  1  0
 14 15  1  0
 15 16  1  0
 16 17  1  0
 17 18  1  0
 17 19  1  0
 19 20  2  0
 12 21  2  0
 21  2  1  0
 19 14  1  0
  1 22  1  0
  1 23  1  0
  1 24  1  0
  3 25  1  0
  5 26  1  0
  5 27  1  0
  5 28  1  0
  7 29  1  0
 10 30  1  0
 10 31  1  0
 11 32  1  0
 14 33  1  0
 15 34  1  0
 15 35  1  0
 16 36  1  0
 16 37  1  0
 18 38  1  0
 18 39  1  0
 18 40  1  0
 21 41  1  0
M  END
