LIG
     RDKit          3D

 38 39  0  0  0  0  0  0  0  0999 V2000
   32.1527    8.0813    7.5304 C   0  0  0  0  0  0  0  0  0  0  0  0
   32.0995    9.4952    7.1411 C   0  0  0  0  0  0  0  0  0  0  0  0
   31.2047   10.2596    7.8633 C   0  0  0  0  0  0  0  0  0  0  0  0
   31.1027   11.5848    7.5570 C   0  0  0  0  0  0  0  0  0  0  0  0
   30.0722   12.2973    8.1584 N   0  0  0  0  0  0  0  0  0  0  0  0
   29.2218   13.0102    7.3379 C   0  0  0  0  0  0  0  0  0  0  0  0
   29.3189   13.1184    6.1172 O   0  0  0  0  0  0  0  0  0  0  0  0
   28.1045   13.6553    8.0696 C   0  0  0  0  0  0  0  0  0  0  0  0
   28.3793   15.0695    8.1646 C   0  0  0  0  0  0  0  0  0  0  0  0
   28.5787   16.2000    8.2964 N   0  0  0  0  0  0  0  0  0  0  0  0
   31.9234   12.1642    6.5936 C   0  0  0  0  0  0  0  0  0  0  0  0
   32.8139   11.3949    5.8535 C   0  0  0  0  0  0  0  0  0  0  0  0
   33.5210   11.9159    4.7615 N   0  0  0  0  0  0  0  0  0  0  0  0
   33.4881   13.2370    4.3439 C   0  0  0  0  0  0  0  0  0  0  0  0
   33.1899   14.2101    5.0295 O   0  0  0  0  0  0  0  0  0  0  0  0
   33.7018   13.3331    2.8347 C   0  0  0  0  0  0  0  0  0  0  0  0
   33.9535   14.7425    2.3422 C   0  0  0  0  0  0  0  0  0  0  0  0
   34.6523   14.4756    1.0354 C   0  0  0  0  0  0  0  0  0  0  0  0
   35.5042   13.2720    1.3800 C   0  0  0  0  0  0  0  0  0  0  0  0
   34.7762   12.5114    2.3576 O   0  0  0  0  0  0  0  0  0  0  0  0
   32.9004   10.0382    6.1274 C   0  0  0  0  0  0  0  0  0  0  0  0
   33.0600    7.6597    7.1328 H   0  0  0  0  0  0  0  0  0  0  0  0
   32.1701    7.9985    8.6214 H   0  0  0  0  0  0  0  0  0  0  0  0
   31.2718    7.5564    7.2044 H   0  0  0  0  0  0  0  0  0  0  0  0
   30.5621    9.7962    8.6073 H   0  0  0  0  0  0  0  0  0  0  0  0
   29.6822   11.9075    9.0179 H   0  0  0  0  0  0  0  0  0  0  0  0
   27.9759   13.2182    9.0624 H   0  0  0  0  0  0  0  0  0  0  0  0
   27.1956   13.4688    7.4937 H   0  0  0  0  0  0  0  0  0  0  0  0
   31.7989   13.2220    6.3971 H   0  0  0  0  0  0  0  0  0  0  0  0
   34.0463   11.2807    4.1686 H   0  0  0  0  0  0  0  0  0  0  0  0
   32.7851   12.9486    2.3666 H   0  0  0  0  0  0  0  0  0  0  0  0
   33.0353   15.3271    2.2327 H   0  0  0  0  0  0  0  0  0  0  0  0
   34.6218   15.2864    3.0209 H   0  0  0  0  0  0  0  0  0  0  0  0
   35.2385   15.3221    0.6686 H   0  0  0  0  0  0  0  0  0  0  0  0
   33.9170   14.2073    0.2675 H   0  0  0  0  0  0  0  0  0  0  0  0
   35.7170   12.6446    0.5100 H   0  0  0  0  0  0  0  0  0  0  0  0
   36.4539   13.5751    1.8338 H   0  0  0  0  0  0  0  0  0  0  0  0
   33.5807    9.3972    5.5729 H   0  0  0  0  0  0  0  0  0  0  0  0
  1  2  1  0
  2  3  2  0
  3  4  1  0
  4  5  1  0
  5  6  1  0
  6  7  2  0
  6  8  1  0
  8  9  1  0
  9 10  3  0
  4 11  2  0
 11 12  1  0
 12 13  1  0
 13 14  1  0
 14 15  2  0
 14 16  1  0
 16 17  1  0
 17 18  1  0
 18 19  1  0
 19 20  1  0
 12 21  2  0
 21  2  1  0
 20 16  1  0
  1 22  1  0
  1 23  1  0
  1 24  1  0
  3 25  1  0
  5 26  1  0
  8 27  1  0
  8 28  1  0
 11 29  1  0
 13 30  1  0
 16 31  1  0
 17 32  1  0
 17 33  1  0
 18 34  1  0
 18 35  1  0
 19 36  1  0
 19 37  1  0
 21 38  1  0
M  END
