LIG
     RDKit          3D

 27 27  0  0  0  0  0  0  0  0999 V2000
   28.4923   15.8661    7.7457 N   0  0  0  0  0  0  0  0  0  0  0  0
   28.7394   14.8401    8.2168 C   0  0  0  0  0  0  0  0  0  0  0  0
   29.0897   13.6073    8.8870 C   0  0  0  0  0  0  0  0  0  0  0  0
   29.6629   12.6347    7.9030 C   0  0  0  0  0  0  0  0  0  0  0  0
   29.0080   12.1855    6.9657 O   0  0  0  0  0  0  0  0  0  0  0  0
   30.9860   12.3309    8.1488 N   0  0  0  0  0  0  0  0  0  0  0  0
   31.5765   11.2019    7.5685 C   0  0  0  0  0  0  0  0  0  0  0  0
   31.0054    9.9634    7.8580 C   0  0  0  0  0  0  0  0  0  0  0  0
   31.5914    8.8484    7.3220 C   0  0  0  0  0  0  0  0  0  0  0  0
   32.6148    8.9111    6.4437 N   0  0  0  0  0  0  0  0  0  0  0  0
   33.1431   10.1251    6.1710 C   0  0  0  0  0  0  0  0  0  0  0  0
   32.7219   11.2996    6.7710 C   0  0  0  0  0  0  0  0  0  0  0  0
   33.4561   12.4955    6.5529 N   0  0  0  0  0  0  0  0  0  0  0  0
   33.9265   13.2712    7.6087 C   0  0  0  0  0  0  0  0  0  0  0  0
   33.5963   13.1064    8.7846 O   0  0  0  0  0  0  0  0  0  0  0  0
   34.9435   14.3457    7.1983 C   0  0  0  0  0  0  0  0  0  0  0  0
   34.7664   14.7968    5.8646 O   0  0  0  0  0  0  0  0  0  0  0  0
   28.2103   13.1519    9.3485 H   0  0  0  0  0  0  0  0  0  0  0  0
   29.8078   13.8178    9.6867 H   0  0  0  0  0  0  0  0  0  0  0  0
   31.6084   13.1140    8.3232 H   0  0  0  0  0  0  0  0  0  0  0  0
   30.1509    9.8592    8.5153 H   0  0  0  0  0  0  0  0  0  0  0  0
   31.2296    7.8551    7.5655 H   0  0  0  0  0  0  0  0  0  0  0  0
   33.9904   10.0988    5.4924 H   0  0  0  0  0  0  0  0  0  0  0  0
   34.0973   12.5098    5.7625 H   0  0  0  0  0  0  0  0  0  0  0  0
   34.8190   15.1920    7.8769 H   0  0  0  0  0  0  0  0  0  0  0  0
   35.9517   13.9369    7.3054 H   0  0  0  0  0  0  0  0  0  0  0  0
   35.0292   15.7452    5.8346 H   0  0  0  0  0  0  0  0  0  0  0  0
  1  2  3  0
  2  3  1  0
  3  4  1  0
  4  5  2  0
  4  6  1  0
  6  7  1  0
  7  8  2  0
  8  9  1  0
  9 10  2  0
 10 11  1  0
 11 12  2  0
 12 13  1  0
 13 14  1  0
 14 15  2  0
 14 16  1  0
 16 17  1  0
 12  7  1  0
  3 18  1  0
  3 19  1  0
  6 20  1  0
  8 21  1  0
  9 22  1  0
 11 23  1  0
 13 24  1  0
 16 25  1  0
 16 26  1  0
 17 27  1  0
M  END
