LIG
     RDKit          3D

 38 39  0  0  0  0  0  0  0  0999 V2000
   34.4770    9.6170    4.1420 C   0  0  0  0  0  0  0  0  0  0  0  0
   34.7220   11.0190    4.6240 C   0  0  0  0  0  0  0  0  0  0  0  0
   35.7630   11.6170    4.3630 O   0  0  0  0  0  0  0  0  0  0  0  0
   33.6960   11.5950    5.3080 N   0  0  0  0  0  0  0  0  0  0  0  0
   32.8076   10.4928    7.2513 C   0  0  0  0  0  0  0  0  0  0  0  0
   33.3470   10.2740    7.4930 C   0  0  0  0  0  0  0  0  0  0  0  0
   32.8900   11.5720    7.6690 C   0  0  0  0  0  0  0  0  0  0  0  0
   33.3940   12.4720    6.7660 O   0  0  0  0  0  0  0  0  0  0  0  0
   32.5070   13.2300    6.0470 C   0  0  0  0  0  0  0  0  0  0  0  0
   32.8430   14.5690    6.5820 C   0  0  0  0  0  0  0  0  0  0  0  0
   32.2450   15.0040    7.5510 O   0  0  0  0  0  0  0  0  0  0  0  0
   33.9260   15.1770    6.0590 N   0  0  0  0  0  0  0  0  0  0  0  0
   34.7260   15.9040    7.0650 C   0  0  0  0  0  0  0  0  0  0  0  0
   36.2000   15.5640    6.9400 C   0  0  0  0  0  0  0  0  0  0  0  0
   36.6530   15.7410    5.6230 O   0  0  0  0  0  0  0  0  0  0  0  0
   35.9790   14.7950    4.8070 C   0  0  0  0  0  0  0  0  0  0  0  0
   34.5050   15.1130    4.7140 C   0  0  0  0  0  0  0  0  0  0  0  0
   31.8380   11.8440    8.5230 C   0  0  0  0  0  0  0  0  0  0  0  0
   31.1650   10.7950    9.1290 C   0  0  0  0  0  0  0  0  0  0  0  0
   31.5630    9.4800    8.9430 C   0  0  0  0  0  0  0  0  0  0  0  0
   30.8480    8.3410    9.6370 F   0  0  0  0  0  0  0  0  0  0  0  0
   33.4018    9.4113    4.1415 H   0  0  0  0  0  0  0  0  0  0  0  0
   34.9780    8.9078    4.8075 H   0  0  0  0  0  0  0  0  0  0  0  0
   34.8464    9.4862    3.1198 H   0  0  0  0  0  0  0  0  0  0  0  0
   33.6108   11.3915    6.3034 H   0  0  0  0  0  0  0  0  0  0  0  0
   33.7511    9.9973    6.5185 H   0  0  0  0  0  0  0  0  0  0  0  0
   31.5042   12.9925    6.3091 H   0  0  0  0  0  0  0  0  0  0  0  0
   32.7449   13.2152    5.0104 H   0  0  0  0  0  0  0  0  0  0  0  0
   34.3391   15.5947    8.0422 H   0  0  0  0  0  0  0  0  0  0  0  0
   34.5649   16.9792    6.9532 H   0  0  0  0  0  0  0  0  0  0  0  0
   36.7963   16.1981    7.6003 H   0  0  0  0  0  0  0  0  0  0  0  0
   36.3735   14.5259    7.2255 H   0  0  0  0  0  0  0  0  0  0  0  0
   36.1303   13.8128    5.2481 H   0  0  0  0  0  0  0  0  0  0  0  0
   36.4399   14.8103    3.8243 H   0  0  0  0  0  0  0  0  0  0  0  0
   34.3485   16.0983    4.2644 H   0  0  0  0  0  0  0  0  0  0  0  0
   33.9840   14.3690    4.1076 H   0  0  0  0  0  0  0  0  0  0  0  0
   31.5110   12.8557    8.7410 H   0  0  0  0  0  0  0  0  0  0  0  0
   30.2963   10.9962    9.7726 H   0  0  0  0  0  0  0  0  0  0  0  0
  1  2  1  0
  2  3  2  0
  2  4  1  0
  4  5  1  0
  5  6  4  0
  6  7  4  0
  7  8  1  0
  8  9  1  0
  9 10  1  0
 10 11  2  0
 10 12  1  0
 12 13  1  0
 13 14  1  0
 14 15  1  0
 15 16  1  0
 16 17  1  0
  7 18  4  0
 18 19  4  0
 19 20  4  0
 20 21  1  0
 20  5  4  0
 17 12  1  0
  1 22  1  0
  1 23  1  0
  1 24  1  0
  4 25  1  0
  6 26  1  0
  9 27  1  0
  9 28  1  0
 13 29  1  0
 13 30  1  0
 14 31  1  0
 14 32  1  0
 16 33  1  0
 16 34  1  0
 17 35  1  0
 17 36  1  0
 18 37  1  0
 19 38  1  0
M  END
