LIG
     RDKit          3D

 38 39  0  0  0  0  0  0  0  0999 V2000
    7.1902    0.1598   -0.8906 C   0  0  0  0  0  0  0  0  0  0  0  0
    5.9683    0.6621   -0.1614 C   0  0  0  0  0  0  0  0  0  0  0  0
    6.0370    1.6506    0.5576 O   0  0  0  0  0  0  0  0  0  0  0  0
    4.8377   -0.0703   -0.4725 N   0  0  0  0  0  0  0  0  0  0  0  0
    3.5465    0.0730    0.0866 C   0  0  0  0  0  0  0  0  0  0  0  0
    2.4843   -0.4903   -0.6372 C   0  0  0  0  0  0  0  0  0  0  0  0
    1.1608   -0.4066   -0.1825 C   0  0  0  0  0  0  0  0  0  0  0  0
    0.2437   -0.9978   -1.0064 O   0  0  0  0  0  0  0  0  0  0  0  0
   -1.0952   -1.1202   -0.5473 C   0  0  0  0  0  0  0  0  0  0  0  0
   -1.9822    0.1271   -0.7147 C   0  0  0  0  0  0  0  0  0  0  0  0
   -1.5405    1.1727   -1.1934 O   0  0  0  0  0  0  0  0  0  0  0  0
   -3.3141    0.0146   -0.3121 N   0  0  0  0  0  0  0  0  0  0  0  0
   -3.8229   -1.0696    0.5354 C   0  0  0  0  0  0  0  0  0  0  0  0
   -5.3381   -1.2450    0.3912 C   0  0  0  0  0  0  0  0  0  0  0  0
   -6.0252   -0.0053    0.5987 O   0  0  0  0  0  0  0  0  0  0  0  0
   -5.6120    0.9602   -0.3794 C   0  0  0  0  0  0  0  0  0  0  0  0
   -4.1127    1.2447   -0.2718 C   0  0  0  0  0  0  0  0  0  0  0  0
    0.8899    0.2528    1.0140 C   0  0  0  0  0  0  0  0  0  0  0  0
    1.9398    0.7913    1.7599 C   0  0  0  0  0  0  0  0  0  0  0  0
    3.2549    0.6914    1.3058 C   0  0  0  0  0  0  0  0  0  0  0  0
    4.2143    1.1392    2.1247 F   0  0  0  0  0  0  0  0  0  0  0  0
    8.0770    0.3417   -0.2767 H   0  0  0  0  0  0  0  0  0  0  0  0
    7.2866    0.6907   -1.8412 H   0  0  0  0  0  0  0  0  0  0  0  0
    7.1248   -0.9159   -1.0786 H   0  0  0  0  0  0  0  0  0  0  0  0
    4.9019   -0.6587   -1.2933 H   0  0  0  0  0  0  0  0  0  0  0  0
    2.6681   -0.9919   -1.5845 H   0  0  0  0  0  0  0  0  0  0  0  0
   -1.1163   -1.4725    0.4904 H   0  0  0  0  0  0  0  0  0  0  0  0
   -1.5474   -1.9074   -1.1620 H   0  0  0  0  0  0  0  0  0  0  0  0
   -3.3241   -2.0136    0.3033 H   0  0  0  0  0  0  0  0  0  0  0  0
   -3.5735   -0.7969    1.5677 H   0  0  0  0  0  0  0  0  0  0  0  0
   -5.5951   -1.6343   -0.6013 H   0  0  0  0  0  0  0  0  0  0  0  0
   -5.7032   -1.9604    1.1346 H   0  0  0  0  0  0  0  0  0  0  0  0
   -5.8716    0.5897   -1.3782 H   0  0  0  0  0  0  0  0  0  0  0  0
   -6.1809    1.8787   -0.2053 H   0  0  0  0  0  0  0  0  0  0  0  0
   -3.8065    1.9315   -1.0675 H   0  0  0  0  0  0  0  0  0  0  0  0
   -3.8930    1.7229    0.6906 H   0  0  0  0  0  0  0  0  0  0  0  0
   -0.1177    0.3743    1.3953 H   0  0  0  0  0  0  0  0  0  0  0  0
    1.7466    1.2878    2.7064 H   0  0  0  0  0  0  0  0  0  0  0  0
  1  2  1  0
  2  3  2  0
  2  4  1  0
  4  5  1  0
  5  6  2  0
  6  7  1  0
  7  8  1  0
  8  9  1  0
  9 10  1  0
 10 11  2  0
 10 12  1  0
 12 13  1  0
 13 14  1  0
 14 15  1  0
 15 16  1  0
 16 17  1  0
  7 18  2  0
 18 19  1  0
 19 20  2  0
 20 21  1  0
 20  5  1  0
 17 12  1  0
  1 22  1  0
  1 23  1  0
  1 24  1  0
  4 25  1  0
  6 26  1  0
  9 27  1  0
  9 28  1  0
 13 29  1  0
 13 30  1  0
 14 31  1  0
 14 32  1  0
 16 33  1  0
 16 34  1  0
 17 35  1  0
 17 36  1  0
 18 37  1  0
 19 38  1  0
M  END
