LIG
     RDKit          3D

 38 39  0  0  0  0  0  0  0  0999 V2000
    4.8872   -0.6786   -3.5362 N   0  0  0  0  0  0  0  0  0  0  0  0
    5.1645    0.1446   -2.7667 C   0  0  0  0  0  0  0  0  0  0  0  0
    5.4870    1.2151   -1.8268 C   0  0  0  0  0  0  0  0  0  0  0  0
    4.8809    0.9217   -0.4735 C   0  0  0  0  0  0  0  0  0  0  0  0
    5.5557    0.4158    0.4183 O   0  0  0  0  0  0  0  0  0  0  0  0
    3.5489    1.2877   -0.3696 N   0  0  0  0  0  0  0  0  0  0  0  0
    2.7247    1.1537    0.7698 C   0  0  0  0  0  0  0  0  0  0  0  0
    3.1296    0.6584    2.0090 C   0  0  0  0  0  0  0  0  0  0  0  0
    2.3137    0.5495    3.0919 N   0  0  0  0  0  0  0  0  0  0  0  0
    1.0344    0.9502    2.9312 C   0  0  0  0  0  0  0  0  0  0  0  0
    0.5307    1.4268    1.7321 C   0  0  0  0  0  0  0  0  0  0  0  0
   -0.7662    1.8353    1.6170 O   0  0  0  0  0  0  0  0  0  0  0  0
   -1.6360    0.7346    1.3459 C   0  0  0  0  0  0  0  0  0  0  0  0
   -1.8618    0.4469   -0.1507 C   0  0  0  0  0  0  0  0  0  0  0  0
   -1.2996    1.1077   -1.0269 O   0  0  0  0  0  0  0  0  0  0  0  0
   -2.7485   -0.5825   -0.4698 N   0  0  0  0  0  0  0  0  0  0  0  0
   -3.2064   -1.5935    0.4902 C   0  0  0  0  0  0  0  0  0  0  0  0
   -4.5245   -2.2404    0.0519 C   0  0  0  0  0  0  0  0  0  0  0  0
   -4.4370   -2.7425   -1.2868 O   0  0  0  0  0  0  0  0  0  0  0  0
   -4.1581   -1.6733   -2.2017 C   0  0  0  0  0  0  0  0  0  0  0  0
   -2.8228   -1.0023   -1.8738 C   0  0  0  0  0  0  0  0  0  0  0  0
    1.3926    1.5545    0.6481 C   0  0  0  0  0  0  0  0  0  0  0  0
    5.1198    2.1811   -2.1893 H   0  0  0  0  0  0  0  0  0  0  0  0
    6.5712    1.3139   -1.7066 H   0  0  0  0  0  0  0  0  0  0  0  0
    3.0879    1.6530   -1.1965 H   0  0  0  0  0  0  0  0  0  0  0  0
    4.1437    0.3239    2.2017 H   0  0  0  0  0  0  0  0  0  0  0  0
    0.4099    0.8757    3.8152 H   0  0  0  0  0  0  0  0  0  0  0  0
   -2.6080    1.0046    1.7739 H   0  0  0  0  0  0  0  0  0  0  0  0
   -1.2909   -0.1800    1.8446 H   0  0  0  0  0  0  0  0  0  0  0  0
   -3.3277   -1.1596    1.4853 H   0  0  0  0  0  0  0  0  0  0  0  0
   -2.4157   -2.3506    0.5429 H   0  0  0  0  0  0  0  0  0  0  0  0
   -5.3513   -1.5225    0.1103 H   0  0  0  0  0  0  0  0  0  0  0  0
   -4.7650   -3.0804    0.7111 H   0  0  0  0  0  0  0  0  0  0  0  0
   -4.1274   -2.0953   -3.2110 H   0  0  0  0  0  0  0  0  0  0  0  0
   -4.9811   -0.9498   -2.1664 H   0  0  0  0  0  0  0  0  0  0  0  0
   -2.6603   -0.1508   -2.5423 H   0  0  0  0  0  0  0  0  0  0  0  0
   -2.0016   -1.7135   -2.0262 H   0  0  0  0  0  0  0  0  0  0  0  0
    1.0076    1.9610   -0.2832 H   0  0  0  0  0  0  0  0  0  0  0  0
  1  2  3  0
  2  3  1  0
  3  4  1  0
  4  5  2  0
  4  6  1  0
  6  7  1  0
  7  8  2  0
  8  9  1  0
  9 10  2  0
 10 11  1  0
 11 12  1  0
 12 13  1  0
 13 14  1  0
 14 15  2  0
 14 16  1  0
 16 17  1  0
 17 18  1  0
 18 19  1  0
 19 20  1  0
 20 21  1  0
 11 22  2  0
 22  7  1  0
 21 16  1  0
  3 23  1  0
  3 24  1  0
  6 25  1  0
  8 26  1  0
 10 27  1  0
 13 28  1  0
 13 29  1  0
 17 30  1  0
 17 31  1  0
 18 32  1  0
 18 33  1  0
 20 34  1  0
 20 35  1  0
 21 36  1  0
 21 37  1  0
 22 38  1  0
M  END
