LIG
     RDKit          3D

 34 34  0  0  0  0  0  0  0  0999 V2000
   29.7487   15.1871   11.3087 C   0  0  0  0  0  0  0  0  0  0  0  0
   29.1486   14.5820   10.1310 N   0  0  0  0  0  0  0  0  0  0  0  0
   28.1392   15.2778    9.3589 C   0  0  0  0  0  0  0  0  0  0  0  0
   29.9977   13.7199    9.4480 C   0  0  0  0  0  0  0  0  0  0  0  0
   31.2076   13.7381    9.6614 O   0  0  0  0  0  0  0  0  0  0  0  0
   29.2926   12.7801    8.4552 C   0  0  0  0  0  0  0  0  0  0  0  0
   29.7381   11.4420    8.4070 O   0  0  0  0  0  0  0  0  0  0  0  0
   30.8387   11.1814    7.6671 C   0  0  0  0  0  0  0  0  0  0  0  0
   31.1097    9.8374    7.4267 C   0  0  0  0  0  0  0  0  0  0  0  0
   32.1480    9.4877    6.5679 C   0  0  0  0  0  0  0  0  0  0  0  0
   32.9482   10.4763    6.0201 C   0  0  0  0  0  0  0  0  0  0  0  0
   33.8995   10.1494    5.1408 F   0  0  0  0  0  0  0  0  0  0  0  0
   32.8098   11.7847    6.4470 C   0  0  0  0  0  0  0  0  0  0  0  0
   33.8388   12.7192    6.2622 N   0  0  0  0  0  0  0  0  0  0  0  0
   34.3434   13.4022    7.3689 C   0  0  0  0  0  0  0  0  0  0  0  0
   33.9787   13.2087    8.5322 O   0  0  0  0  0  0  0  0  0  0  0  0
   35.4265   14.4127    7.0851 C   0  0  0  0  0  0  0  0  0  0  0  0
   35.7591   14.6658    5.3251 S   0  0  0  0  0  0  0  0  0  0  0  0
   31.6992   12.1503    7.1847 C   0  0  0  0  0  0  0  0  0  0  0  0
   30.4165   16.0027   11.0189 H   0  0  0  0  0  0  0  0  0  0  0  0
   30.3453   14.4451   11.8392 H   0  0  0  0  0  0  0  0  0  0  0  0
   28.9661   15.5046   11.9970 H   0  0  0  0  0  0  0  0  0  0  0  0
   27.3037   15.5393    9.9954 H   0  0  0  0  0  0  0  0  0  0  0  0
   28.5885   16.1499    8.8771 H   0  0  0  0  0  0  0  0  0  0  0  0
   27.7328   14.6745    8.5454 H   0  0  0  0  0  0  0  0  0  0  0  0
   28.2434   12.7030    8.7522 H   0  0  0  0  0  0  0  0  0  0  0  0
   29.2850   13.2427    7.4594 H   0  0  0  0  0  0  0  0  0  0  0  0
   30.4813    9.0624    7.8624 H   0  0  0  0  0  0  0  0  0  0  0  0
   32.3570    8.4489    6.3464 H   0  0  0  0  0  0  0  0  0  0  0  0
   34.5608   12.4863    5.5831 H   0  0  0  0  0  0  0  0  0  0  0  0
   35.1136   15.3609    7.5202 H   0  0  0  0  0  0  0  0  0  0  0  0
   36.3413   14.0682    7.5740 H   0  0  0  0  0  0  0  0  0  0  0  0
   35.6345   16.0097    5.3360 H   0  0  0  0  0  0  0  0  0  0  0  0
   31.5862   13.1984    7.4238 H   0  0  0  0  0  0  0  0  0  0  0  0
  1  2  1  0
  2  3  1  0
  2  4  1  0
  4  5  2  0
  4  6  1  0
  6  7  1  0
  7  8  1  0
  8  9  2  0
  9 10  1  0
 10 11  2  0
 11 12  1  0
 11 13  1  0
 13 14  1  0
 14 15  1  0
 15 16  2  0
 15 17  1  0
 17 18  1  0
 13 19  2  0
 19  8  1  0
  1 20  1  0
  1 21  1  0
  1 22  1  0
  3 23  1  0
  3 24  1  0
  3 25  1  0
  6 26  1  0
  6 27  1  0
  9 28  1  0
 10 29  1  0
 14 30  1  0
 17 31  1  0
 17 32  1  0
 18 33  1  0
 19 34  1  0
M  END
