LIG
     RDKit          3D

 40 41  0  0  0  0  0  0  0  0999 V2000
   -2.4896   -2.9674   -2.9632 C   0  0  0  0  0  0  0  0  0  0  0  0
   -2.1616   -1.9332   -1.9298 C   0  0  0  0  0  0  0  0  0  0  0  0
   -1.0236   -1.1604   -2.0483 C   0  0  0  0  0  0  0  0  0  0  0  0
   -0.7646   -0.2298   -1.0481 C   0  0  0  0  0  0  0  0  0  0  0  0
    0.3680    0.5422   -1.1668 O   0  0  0  0  0  0  0  0  0  0  0  0
    1.4974   -0.1288   -0.6170 C   0  0  0  0  0  0  0  0  0  0  0  0
    2.5825   -0.3124   -1.6782 C   0  0  0  0  0  0  0  0  0  0  0  0
    3.8685   -0.2881   -0.8758 C   0  0  0  0  0  0  0  0  0  0  0  0
    3.5754    0.6430    0.1818 N   0  0  0  0  0  0  0  0  0  0  0  0
    4.5891    1.1189    1.0929 C   0  0  0  0  0  0  0  0  0  0  0  0
    2.2099    0.7335    0.4249 C   0  0  0  0  0  0  0  0  0  0  0  0
    1.6654    1.3627    1.3190 O   0  0  0  0  0  0  0  0  0  0  0  0
   -1.6351   -0.0415    0.0394 C   0  0  0  0  0  0  0  0  0  0  0  0
   -1.2761    0.9746    0.9562 N   0  0  0  0  0  0  0  0  0  0  0  0
   -1.5936    1.0894    2.2932 C   0  0  0  0  0  0  0  0  0  0  0  0
   -2.1788    0.2604    2.9807 O   0  0  0  0  0  0  0  0  0  0  0  0
   -1.0817    2.4034    2.8981 C   0  0  0  0  0  0  0  0  0  0  0  0
   -1.0885    3.4890    1.9800 O   0  0  0  0  0  0  0  0  0  0  0  0
   -2.7842   -0.8386    0.0550 C   0  0  0  0  0  0  0  0  0  0  0  0
   -3.9017   -0.7065    1.0434 C   0  0  0  0  0  0  0  0  0  0  0  0
   -3.0264   -1.7857   -0.9026 N   0  0  0  0  0  0  0  0  0  0  0  0
   -1.6860   -3.7080   -3.0253 H   0  0  0  0  0  0  0  0  0  0  0  0
   -3.4167   -3.4916   -2.7097 H   0  0  0  0  0  0  0  0  0  0  0  0
   -2.6209   -2.4961   -3.9423 H   0  0  0  0  0  0  0  0  0  0  0  0
   -0.3538   -1.2738   -2.8920 H   0  0  0  0  0  0  0  0  0  0  0  0
    1.2593   -1.0888   -0.1357 H   0  0  0  0  0  0  0  0  0  0  0  0
    2.5587    0.5179   -2.3957 H   0  0  0  0  0  0  0  0  0  0  0  0
    2.4592   -1.2381   -2.2483 H   0  0  0  0  0  0  0  0  0  0  0  0
    4.7208    0.0562   -1.4680 H   0  0  0  0  0  0  0  0  0  0  0  0
    4.0895   -1.2645   -0.4317 H   0  0  0  0  0  0  0  0  0  0  0  0
    4.1681    1.8552    1.7827 H   0  0  0  0  0  0  0  0  0  0  0  0
    4.9725    0.2700    1.6657 H   0  0  0  0  0  0  0  0  0  0  0  0
    5.3994    1.5743    0.5178 H   0  0  0  0  0  0  0  0  0  0  0  0
   -0.4894    1.5644    0.6755 H   0  0  0  0  0  0  0  0  0  0  0  0
   -1.7169    2.6727    3.7476 H   0  0  0  0  0  0  0  0  0  0  0  0
   -0.0601    2.2510    3.2565 H   0  0  0  0  0  0  0  0  0  0  0  0
   -2.0154    3.6252    1.7164 H   0  0  0  0  0  0  0  0  0  0  0  0
   -4.8310   -1.1051    0.6189 H   0  0  0  0  0  0  0  0  0  0  0  0
   -3.6871   -1.2862    1.9448 H   0  0  0  0  0  0  0  0  0  0  0  0
   -4.1010    0.3406    1.2881 H   0  0  0  0  0  0  0  0  0  0  0  0
  1  2  1  0
  2  3  2  0
  3  4  1  0
  4  5  1  0
  5  6  1  0
  6  7  1  0
  7  8  1  0
  8  9  1  0
  9 10  1  0
  9 11  1  0
 11 12  2  0
  4 13  2  0
 13 14  1  0
 14 15  1  0
 15 16  2  0
 15 17  1  0
 17 18  1  0
 13 19  1  0
 19 20  1  0
 19 21  2  0
 21  2  1  0
 11  6  1  0
  1 22  1  0
  1 23  1  0
  1 24  1  0
  3 25  1  0
  6 26  1  0
  7 27  1  0
  7 28  1  0
  8 29  1  0
  8 30  1  0
 10 31  1  0
 10 32  1  0
 10 33  1  0
 14 34  1  0
 17 35  1  0
 17 36  1  0
 18 37  1  0
 20 38  1  0
 20 39  1  0
 20 40  1  0
M  END
