LIG
     RDKit          3D

 40 40  0  0  0  0  0  0  0  0999 V2000
   33.9454   10.0905    4.9629 C   0  0  0  0  0  0  0  0  0  0  0  0
   32.9232   10.4871    5.9771 C   0  0  0  0  0  0  0  0  0  0  0  0
   32.1478    9.5119    6.6132 C   0  0  0  0  0  0  0  0  0  0  0  0
   31.1440    9.8589    7.5260 C   0  0  0  0  0  0  0  0  0  0  0  0
   30.4086    8.8005    8.2958 C   0  0  0  0  0  0  0  0  0  0  0  0
   30.8351   11.2048    7.6957 C   0  0  0  0  0  0  0  0  0  0  0  0
   29.7407   11.4838    8.4383 O   0  0  0  0  0  0  0  0  0  0  0  0
   29.2879   12.8149    8.4572 C   0  0  0  0  0  0  0  0  0  0  0  0
   29.9917   13.7470    9.4519 C   0  0  0  0  0  0  0  0  0  0  0  0
   31.2011   13.7699    9.6662 O   0  0  0  0  0  0  0  0  0  0  0  0
   29.1350   14.5970   10.1412 N   0  0  0  0  0  0  0  0  0  0  0  0
   29.7329   15.1919   11.3244 C   0  0  0  0  0  0  0  0  0  0  0  0
   28.1320   15.2963    9.3630 C   0  0  0  0  0  0  0  0  0  0  0  0
   31.6697   12.1656    7.1607 C   0  0  0  0  0  0  0  0  0  0  0  0
   32.7773   11.7971    6.4161 C   0  0  0  0  0  0  0  0  0  0  0  0
   33.7905   12.7534    6.2508 N   0  0  0  0  0  0  0  0  0  0  0  0
   34.3033   13.4040    7.3775 C   0  0  0  0  0  0  0  0  0  0  0  0
   33.9603   13.1735    8.5407 O   0  0  0  0  0  0  0  0  0  0  0  0
   35.3555   14.4519    7.1057 C   0  0  0  0  0  0  0  0  0  0  0  0
   35.7597   14.6578    5.3529 S   0  0  0  0  0  0  0  0  0  0  0  0
   33.8483   10.7103    4.0654 H   0  0  0  0  0  0  0  0  0  0  0  0
   34.9555   10.2022    5.3656 H   0  0  0  0  0  0  0  0  0  0  0  0
   33.8216    9.0484    4.6515 H   0  0  0  0  0  0  0  0  0  0  0  0
   32.3606    8.4607    6.4343 H   0  0  0  0  0  0  0  0  0  0  0  0
   30.9067    7.8399    8.1782 H   0  0  0  0  0  0  0  0  0  0  0  0
   30.4059    9.0307    9.3654 H   0  0  0  0  0  0  0  0  0  0  0  0
   29.3810    8.6978    7.9453 H   0  0  0  0  0  0  0  0  0  0  0  0
   29.2869   13.2703    7.4584 H   0  0  0  0  0  0  0  0  0  0  0  0
   28.2370   12.7354    8.7475 H   0  0  0  0  0  0  0  0  0  0  0  0
   30.4078   16.0049   11.0438 H   0  0  0  0  0  0  0  0  0  0  0  0
   30.3219   14.4423   11.8530 H   0  0  0  0  0  0  0  0  0  0  0  0
   28.9497   15.5094   12.0117 H   0  0  0  0  0  0  0  0  0  0  0  0
   27.7264   14.6953    8.5474 H   0  0  0  0  0  0  0  0  0  0  0  0
   27.2925   15.5597    9.9930 H   0  0  0  0  0  0  0  0  0  0  0  0
   28.5867   16.1656    8.8809 H   0  0  0  0  0  0  0  0  0  0  0  0
   31.5502   13.2172    7.3823 H   0  0  0  0  0  0  0  0  0  0  0  0
   34.5085   12.5828    5.5535 H   0  0  0  0  0  0  0  0  0  0  0  0
   34.9803   15.3995    7.4900 H   0  0  0  0  0  0  0  0  0  0  0  0
   36.2604   14.1678    7.6485 H   0  0  0  0  0  0  0  0  0  0  0  0
   35.6719   16.0045    5.3377 H   0  0  0  0  0  0  0  0  0  0  0  0
  1  2  1  0
  2  3  2  0
  3  4  1  0
  4  5  1  0
  4  6  2  0
  6  7  1  0
  7  8  1  0
  8  9  1  0
  9 10  2  0
  9 11  1  0
 11 12  1  0
 11 13  1  0
  6 14  1  0
 14 15  2  0
 15 16  1  0
 16 17  1  0
 17 18  2  0
 17 19  1  0
 19 20  1  0
 15  2  1  0
  1 21  1  0
  1 22  1  0
  1 23  1  0
  3 24  1  0
  5 25  1  0
  5 26  1  0
  5 27  1  0
  8 28  1  0
  8 29  1  0
 12 30  1  0
 12 31  1  0
 12 32  1  0
 13 33  1  0
 13 34  1  0
 13 35  1  0
 14 36  1  0
 16 37  1  0
 19 38  1  0
 19 39  1  0
 20 40  1  0
M  END
