LIG
     RDKit          3D

 34 34  0  0  0  0  0  0  0  0999 V2000
   28.1410   15.4480   10.5470 C   0  0  0  0  0  0  0  0  0  0  0  0
   29.5320   15.0110   10.4940 N   0  0  0  0  0  0  0  0  0  0  0  0
   30.5000   15.9370   11.0760 C   0  0  0  0  0  0  0  0  0  0  0  0
   29.9260   13.8300    9.9860 C   0  0  0  0  0  0  0  0  0  0  0  0
   31.1030   13.5010    9.9720 O   0  0  0  0  0  0  0  0  0  0  0  0
   28.8670   12.8920    9.4310 C   0  0  0  0  0  0  0  0  0  0  0  0
   29.4280   11.6110    9.1450 O   0  0  0  0  0  0  0  0  0  0  0  0
   30.1520   11.4340    7.9910 C   0  0  0  0  0  0  0  0  0  0  0  0
   30.4800   10.1020    7.7350 C   0  0  0  0  0  0  0  0  0  0  0  0
   31.2880    9.8340    6.6350 C   0  0  0  0  0  0  0  0  0  0  0  0
   31.7330   10.8470    5.8070 C   0  0  0  0  0  0  0  0  0  0  0  0
   31.3810   12.1530    6.0670 C   0  0  0  0  0  0  0  0  0  0  0  0
   33.6520   12.7090    6.6590 N   0  0  0  0  0  0  0  0  0  0  0  0
   34.4250   13.2280    7.6390 C   0  0  0  0  0  0  0  0  0  0  0  0
   34.9479   12.5867    8.5662 O   0  0  0  0  0  0  0  0  0  0  0  0
   34.6680   14.7180    7.5670 C   0  0  0  0  0  0  0  0  0  0  0  0
   35.0470   15.1300    6.2680 S   0  0  0  0  0  0  0  0  0  0  0  0
   30.5900   12.4580    7.1610 C   0  0  0  0  0  0  0  0  0  0  0  0
   27.6026   14.9859    9.7154 H   0  0  0  0  0  0  0  0  0  0  0  0
   27.6611   15.1658   11.4844 H   0  0  0  0  0  0  0  0  0  0  0  0
   27.4937   14.5752   10.6668 H   0  0  0  0  0  0  0  0  0  0  0  0
   30.5739   16.8228   10.4400 H   0  0  0  0  0  0  0  0  0  0  0  0
   31.3300   16.1359   10.3946 H   0  0  0  0  0  0  0  0  0  0  0  0
   31.4703   15.4362   11.1271 H   0  0  0  0  0  0  0  0  0  0  0  0
   28.4780   13.3252    8.5047 H   0  0  0  0  0  0  0  0  0  0  0  0
   28.0856   12.7802   10.1886 H   0  0  0  0  0  0  0  0  0  0  0  0
   30.1215    9.3155    8.3645 H   0  0  0  0  0  0  0  0  0  0  0  0
   31.5752    8.7953    6.4238 H   0  0  0  0  0  0  0  0  0  0  0  0
   32.3584   10.5734    4.9591 H   0  0  0  0  0  0  0  0  0  0  0  0
   33.9661   12.3486    5.6783 H   0  0  0  0  0  0  0  0  0  0  0  0
   35.4140   14.8860    8.4078 H   0  0  0  0  0  0  0  0  0  0  0  0
   33.7020   15.1448    7.9858 H   0  0  0  0  0  0  0  0  0  0  0  0
   36.2941   14.5740    6.0769 H   0  0  0  0  0  0  0  0  0  0  0  0
   30.3209   13.4843    7.3577 H   0  0  0  0  0  0  0  0  0  0  0  0
  1  2  1  0
  2  3  1  0
  2  4  1  0
  4  5  2  0
  4  6  1  0
  6  7  1  0
  7  8  1  0
  8  9  4  0
  9 10  4  0
 10 11  4  0
 11 12  4  0
 12 13  1  0
 13 14  1  0
 14 15  2  0
 14 16  1  0
 16 17  1  0
 12 18  4  0
 18  8  4  0
  1 19  1  0
  1 20  1  0
  1 21  1  0
  3 22  1  0
  3 23  1  0
  3 24  1  0
  6 25  1  0
  6 26  1  0
  9 27  1  0
 10 28  1  0
 11 29  1  0
 13 30  1  0
 16 31  1  0
 16 32  1  0
 17 33  1  0
 18 34  1  0
M  END
$$$$
LIG
     RDKit          3D

 34 34  0  0  0  0  0  0  0  0999 V2000
   30.5000   15.9370   11.0760 C   0  0  0  0  0  0  0  0  0  0  0  0
   29.5320   15.0110   10.4940 N   0  0  0  0  0  0  0  0  0  0  0  0
   28.1410   15.4480   10.5470 C   0  0  0  0  0  0  0  0  0  0  0  0
   29.9260   13.8300    9.9860 C   0  0  0  0  0  0  0  0  0  0  0  0
   31.1030   13.5010    9.9720 O   0  0  0  0  0  0  0  0  0  0  0  0
   28.8670   12.8920    9.4310 C   0  0  0  0  0  0  0  0  0  0  0  0
   29.4280   11.6110    9.1450 O   0  0  0  0  0  0  0  0  0  0  0  0
   30.1520   11.4340    7.9910 C   0  0  0  0  0  0  0  0  0  0  0  0
   30.4800   10.1020    7.7350 C   0  0  0  0  0  0  0  0  0  0  0  0
   31.2880    9.8340    6.6350 C   0  0  0  0  0  0  0  0  0  0  0  0
   31.7330   10.8470    5.8070 C   0  0  0  0  0  0  0  0  0  0  0  0
   31.3810   12.1530    6.0670 C   0  0  0  0  0  0  0  0  0  0  0  0
   33.6520   12.7090    6.6590 N   0  0  0  0  0  0  0  0  0  0  0  0
   34.4250   13.2280    7.6390 C   0  0  0  0  0  0  0  0  0  0  0  0
   34.9568   12.5736    8.5718 O   0  0  0  0  0  0  0  0  0  0  0  0
   34.6680   14.7180    7.5670 C   0  0  0  0  0  0  0  0  0  0  0  0
   35.0470   15.1300    6.2680 S   0  0  0  0  0  0  0  0  0  0  0  0
   30.5900   12.4580    7.1610 C   0  0  0  0  0  0  0  0  0  0  0  0
   30.3212   15.9957   12.1526 H   0  0  0  0  0  0  0  0  0  0  0  0
   31.1081   15.4076   11.8141 H   0  0  0  0  0  0  0  0  0  0  0  0
   30.0040   16.7682   11.5778 H   0  0  0  0  0  0  0  0  0  0  0  0
   27.4523   14.6003   10.5580 H   0  0  0  0  0  0  0  0  0  0  0  0
   27.9972   16.0364   11.4571 H   0  0  0  0  0  0  0  0  0  0  0  0
   27.6738   15.0471   11.4501 H   0  0  0  0  0  0  0  0  0  0  0  0
   28.0360   12.8095   10.1039 H   0  0  0  0  0  0  0  0  0  0  0  0
   28.5085   13.3050    8.5051 H   0  0  0  0  0  0  0  0  0  0  0  0
   30.1232    9.3134    8.3615 H   0  0  0  0  0  0  0  0  0  0  0  0
   31.5754    8.7958    6.4216 H   0  0  0  0  0  0  0  0  0  0  0  0
   32.3578   10.5743    4.9581 H   0  0  0  0  0  0  0  0  0  0  0  0
   33.9470   12.3904    5.6465 H   0  0  0  0  0  0  0  0  0  0  0  0
   33.6980   15.1616    8.0127 H   0  0  0  0  0  0  0  0  0  0  0  0
   35.4002   14.9088    8.4436 H   0  0  0  0  0  0  0  0  0  0  0  0
   34.8481   14.0151    5.4813 H   0  0  0  0  0  0  0  0  0  0  0  0
   30.3248   13.4858    7.3532 H   0  0  0  0  0  0  0  0  0  0  0  0
  1  2  1  0
  2  3  1  0
  2  4  1  0
  4  5  2  0
  4  6  1  0
  6  7  1  0
  7  8  1  0
  8  9  4  0
  9 10  4  0
 10 11  4  0
 11 12  4  0
 12 13  1  0
 13 14  1  0
 14 15  2  0
 14 16  1  0
 16 17  1  0
 12 18  4  0
 18  8  4  0
  1 19  1  0
  1 20  1  0
  1 21  1  0
  3 22  1  0
  3 23  1  0
  3 24  1  0
  6 25  1  0
  6 26  1  0
  9 27  1  0
 10 28  1  0
 11 29  1  0
 13 30  1  0
 16 31  1  0
 16 32  1  0
 17 33  1  0
 18 34  1  0
M  END
$$$$
LIG
     RDKit          3D

 34 34  0  0  0  0  0  0  0  0999 V2000
   28.1410   15.4480   10.5470 C   0  0  0  0  0  0  0  0  0  0  0  0
   29.5320   15.0110   10.4940 N   0  0  0  0  0  0  0  0  0  0  0  0
   30.5000   15.9370   11.0760 C   0  0  0  0  0  0  0  0  0  0  0  0
   29.9260   13.8300    9.9860 C   0  0  0  0  0  0  0  0  0  0  0  0
   31.1030   13.5010    9.9720 O   0  0  0  0  0  0  0  0  0  0  0  0
   28.8670   12.8920    9.4310 C   0  0  0  0  0  0  0  0  0  0  0  0
   29.4280   11.6110    9.1450 O   0  0  0  0  0  0  0  0  0  0  0  0
   30.1520   11.4340    7.9910 C   0  0  0  0  0  0  0  0  0  0  0  0
   30.4800   10.1020    7.7350 C   0  0  0  0  0  0  0  0  0  0  0  0
   31.2880    9.8340    6.6350 C   0  0  0  0  0  0  0  0  0  0  0  0
   31.7330   10.8470    5.8070 C   0  0  0  0  0  0  0  0  0  0  0  0
   31.3810   12.1530    6.0670 C   0  0  0  0  0  0  0  0  0  0  0  0
   33.6520   12.7090    6.6590 N   0  0  0  0  0  0  0  0  0  0  0  0
   34.4250   13.2280    7.6390 C   0  0  0  0  0  0  0  0  0  0  0  0
   34.9212   12.5810    8.5956 O   0  0  0  0  0  0  0  0  0  0  0  0
   34.6680   14.7180    7.5670 C   0  0  0  0  0  0  0  0  0  0  0  0
   35.0470   15.1300    6.2680 S   0  0  0  0  0  0  0  0  0  0  0  0
   30.5900   12.4580    7.1610 C   0  0  0  0  0  0  0  0  0  0  0  0
   27.7405   15.3928   11.5621 H   0  0  0  0  0  0  0  0  0  0  0  0
   27.5311   14.6216   10.9220 H   0  0  0  0  0  0  0  0  0  0  0  0
   27.5381   14.8066    9.8988 H   0  0  0  0  0  0  0  0  0  0  0  0
   30.7167   15.6312   12.1028 H   0  0  0  0  0  0  0  0  0  0  0  0
   30.0416   16.4106   11.9481 H   0  0  0  0  0  0  0  0  0  0  0  0
   30.1275   16.9609   11.0927 H   0  0  0  0  0  0  0  0  0  0  0  0
   28.5537   13.2876    8.4780 H   0  0  0  0  0  0  0  0  0  0  0  0
   28.0247   12.8086   10.0907 H   0  0  0  0  0  0  0  0  0  0  0  0
   30.1586    9.2920    8.3558 H   0  0  0  0  0  0  0  0  0  0  0  0
   31.5862    8.7996    6.4286 H   0  0  0  0  0  0  0  0  0  0  0  0
   32.3714   10.5777    4.9671 H   0  0  0  0  0  0  0  0  0  0  0  0
   33.9632   12.2621    5.7021 H   0  0  0  0  0  0  0  0  0  0  0  0
   35.4154   14.9017    8.4270 H   0  0  0  0  0  0  0  0  0  0  0  0
   33.7048   15.1615    8.0285 H   0  0  0  0  0  0  0  0  0  0  0  0
   34.0890   14.5841    5.4398 H   0  0  0  0  0  0  0  0  0  0  0  0
   30.3013   13.4722    7.3856 H   0  0  0  0  0  0  0  0  0  0  0  0
  1  2  1  0
  2  3  1  0
  2  4  1  0
  4  5  2  0
  4  6  1  0
  6  7  1  0
  7  8  1  0
  8  9  4  0
  9 10  4  0
 10 11  4  0
 11 12  4  0
 12 13  1  0
 13 14  1  0
 14 15  2  0
 14 16  1  0
 16 17  1  0
 12 18  4  0
 18  8  4  0
  1 19  1  0
  1 20  1  0
  1 21  1  0
  3 22  1  0
  3 23  1  0
  3 24  1  0
  6 25  1  0
  6 26  1  0
  9 27  1  0
 10 28  1  0
 11 29  1  0
 13 30  1  0
 16 31  1  0
 16 32  1  0
 17 33  1  0
 18 34  1  0
M  END
$$$$
