LIG
     RDKit          3D

 40 40  0  0  0  0  0  0  0  0999 V2000
   30.0496    8.7694    8.4441 C   0  0  0  0  0  0  0  0  0  0  0  0
   30.9025    9.8075    7.7904 C   0  0  0  0  0  0  0  0  0  0  0  0
   31.9641    9.3824    6.9837 C   0  0  0  0  0  0  0  0  0  0  0  0
   32.8942   10.2835    6.4607 C   0  0  0  0  0  0  0  0  0  0  0  0
   33.9433    9.7539    5.5311 C   0  0  0  0  0  0  0  0  0  0  0  0
   32.7870   11.6204    6.8555 C   0  0  0  0  0  0  0  0  0  0  0  0
   33.8945   12.4762    6.7590 N   0  0  0  0  0  0  0  0  0  0  0  0
   34.2218   13.3889    7.7541 C   0  0  0  0  0  0  0  0  0  0  0  0
   33.7006   13.4120    8.8688 O   0  0  0  0  0  0  0  0  0  0  0  0
   35.4077   14.2847    7.3876 C   0  0  0  0  0  0  0  0  0  0  0  0
   35.3943   15.0613    6.2091 O   0  0  0  0  0  0  0  0  0  0  0  0
   35.0483   14.4276    4.9941 C   0  0  0  0  0  0  0  0  0  0  0  0
   35.7736   13.1174    4.6101 C   0  0  0  0  0  0  0  0  0  0  0  0
   36.7466   12.7198    5.2561 O   0  0  0  0  0  0  0  0  0  0  0  0
   35.2444   12.3476    3.5783 N   0  0  0  0  0  0  0  0  0  0  0  0
   35.9796   11.1634    3.1585 C   0  0  0  0  0  0  0  0  0  0  0  0
   34.1720   12.7702    2.6931 C   0  0  0  0  0  0  0  0  0  0  0  0
   31.6241   12.0802    7.4647 C   0  0  0  0  0  0  0  0  0  0  0  0
   30.6834   11.1750    7.9136 C   0  0  0  0  0  0  0  0  0  0  0  0
   29.5794   11.7193    8.4891 O   0  0  0  0  0  0  0  0  0  0  0  0
   29.9128    9.0050    9.5027 H   0  0  0  0  0  0  0  0  0  0  0  0
   29.0877    8.6744    7.9434 H   0  0  0  0  0  0  0  0  0  0  0  0
   30.5339    7.7947    8.4140 H   0  0  0  0  0  0  0  0  0  0  0  0
   32.0962    8.3164    6.8085 H   0  0  0  0  0  0  0  0  0  0  0  0
   34.1423    8.6964    5.7216 H   0  0  0  0  0  0  0  0  0  0  0  0
   34.8995   10.2639    5.6267 H   0  0  0  0  0  0  0  0  0  0  0  0
   33.5927    9.8534    4.5005 H   0  0  0  0  0  0  0  0  0  0  0  0
   34.7465   12.0473    6.4059 H   0  0  0  0  0  0  0  0  0  0  0  0
   35.5109   14.9950    8.2128 H   0  0  0  0  0  0  0  0  0  0  0  0
   36.3180   13.6781    7.4215 H   0  0  0  0  0  0  0  0  0  0  0  0
   33.9657   14.2751    5.0010 H   0  0  0  0  0  0  0  0  0  0  0  0
   35.2631   15.1446    4.1938 H   0  0  0  0  0  0  0  0  0  0  0  0
   35.2756   10.3814    2.8613 H   0  0  0  0  0  0  0  0  0  0  0  0
   36.6023   11.4322    2.2996 H   0  0  0  0  0  0  0  0  0  0  0  0
   36.6257   10.7764    3.9502 H   0  0  0  0  0  0  0  0  0  0  0  0
   34.5980   12.9793    1.7070 H   0  0  0  0  0  0  0  0  0  0  0  0
   33.4449   11.9570    2.6091 H   0  0  0  0  0  0  0  0  0  0  0  0
   33.6566   13.6653    3.0392 H   0  0  0  0  0  0  0  0  0  0  0  0
   31.4801   13.1349    7.6797 H   0  0  0  0  0  0  0  0  0  0  0  0
   29.5205   11.3789    9.4070 H   0  0  0  0  0  0  0  0  0  0  0  0
  1  2  1  0
  2  3  2  0
  3  4  1  0
  4  5  1  0
  4  6  2  0
  6  7  1  0
  7  8  1  0
  8  9  2  0
  8 10  1  0
 10 11  1  0
 11 12  1  0
 12 13  1  0
 13 14  2  0
 13 15  1  0
 15 16  1  0
 15 17  1  0
  6 18  1  0
 18 19  2  0
 19 20  1  0
 19  2  1  0
  1 21  1  0
  1 22  1  0
  1 23  1  0
  3 24  1  0
  5 25  1  0
  5 26  1  0
  5 27  1  0
  7 28  1  0
 10 29  1  0
 10 30  1  0
 12 31  1  0
 12 32  1  0
 16 33  1  0
 16 34  1  0
 16 35  1  0
 17 36  1  0
 17 37  1  0
 17 38  1  0
 18 39  1  0
 20 40  1  0
M  END
