LIG
     RDKit          3D

 38 39  0  0  0  0  0  0  0  0999 V2000
   28.5580   15.7160    7.2730 N   0  0  0  0  0  0  0  0  0  0  0  0
   28.5830   14.6820    7.7450 C   0  0  0  0  0  0  0  0  0  0  0  0
   28.7130   13.3600    8.3510 C   0  0  0  0  0  0  0  0  0  0  0  0
   29.7090   12.5130    7.5840 C   0  0  0  0  0  0  0  0  0  0  0  0
   29.9180   12.6920    6.3980 O   0  0  0  0  0  0  0  0  0  0  0  0
   31.4364   11.8398    8.0242 N   0  0  0  0  0  0  0  0  0  0  0  0
   32.6580    9.2460    8.1260 C   0  0  0  0  0  0  0  0  0  0  0  0
   31.5630    9.4800    8.9430 C   0  0  0  0  0  0  0  0  0  0  0  0
   31.1650   10.7950    9.1290 N   0  0  0  0  0  0  0  0  0  0  0  0
   31.8380   11.8440    8.5230 C   0  0  0  0  0  0  0  0  0  0  0  0
   32.8900   11.5720    7.6690 C   0  0  0  0  0  0  0  0  0  0  0  0
   33.3940   12.4720    6.7660 O   0  0  0  0  0  0  0  0  0  0  0  0
   32.5070   13.2300    6.0470 C   0  0  0  0  0  0  0  0  0  0  0  0
   32.8430   14.5690    6.5820 C   0  0  0  0  0  0  0  0  0  0  0  0
   32.2450   15.0040    7.5510 O   0  0  0  0  0  0  0  0  0  0  0  0
   33.9260   15.1770    6.0590 N   0  0  0  0  0  0  0  0  0  0  0  0
   34.5050   15.1130    4.7140 C   0  0  0  0  0  0  0  0  0  0  0  0
   35.9790   14.7950    4.8070 C   0  0  0  0  0  0  0  0  0  0  0  0
   36.6530   15.7410    5.6230 O   0  0  0  0  0  0  0  0  0  0  0  0
   36.2000   15.5640    6.9400 C   0  0  0  0  0  0  0  0  0  0  0  0
   34.7260   15.9040    7.0650 C   0  0  0  0  0  0  0  0  0  0  0  0
   33.3470   10.2740    7.4930 C   0  0  0  0  0  0  0  0  0  0  0  0
   29.0210   13.4437    9.4035 H   0  0  0  0  0  0  0  0  0  0  0  0
   27.7482   12.8323    8.3548 H   0  0  0  0  0  0  0  0  0  0  0  0
   32.0604   12.5800    8.3108 H   0  0  0  0  0  0  0  0  0  0  0  0
   30.9948    8.7669    9.4483 H   0  0  0  0  0  0  0  0  0  0  0  0
   31.4769   12.7973    8.7719 H   0  0  0  0  0  0  0  0  0  0  0  0
   32.7315   13.2049    5.0061 H   0  0  0  0  0  0  0  0  0  0  0  0
   31.5022   12.9981    6.3174 H   0  0  0  0  0  0  0  0  0  0  0  0
   34.3440   16.0550    4.1930 H   0  0  0  0  0  0  0  0  0  0  0  0
   33.9700   14.3190    4.1883 H   0  0  0  0  0  0  0  0  0  0  0  0
   36.1334   13.8072    5.2407 H   0  0  0  0  0  0  0  0  0  0  0  0
   36.4440   14.8083    3.8191 H   0  0  0  0  0  0  0  0  0  0  0  0
   36.7909   16.1992    7.5960 H   0  0  0  0  0  0  0  0  0  0  0  0
   36.3694   14.5253    7.2217 H   0  0  0  0  0  0  0  0  0  0  0  0
   34.3596   15.6790    8.0721 H   0  0  0  0  0  0  0  0  0  0  0  0
   34.5578   16.9707    6.8718 H   0  0  0  0  0  0  0  0  0  0  0  0
   34.2076   10.0958    6.8778 H   0  0  0  0  0  0  0  0  0  0  0  0
  1  2  3  0
  2  3  1  0
  3  4  1  0
  4  5  2  0
  4  6  1  0
  6  7  1  0
  7  8  4  0
  8  9  4  0
  9 10  4  0
 10 11  4  0
 11 12  1  0
 12 13  1  0
 13 14  1  0
 14 15  2  0
 14 16  1  0
 16 17  1  0
 17 18  1  0
 18 19  1  0
 19 20  1  0
 20 21  1  0
 11 22  4  0
 22  7  4  0
 21 16  1  0
  3 23  1  0
  3 24  1  0
  6 25  1  0
  8 26  1  0
 10 27  1  0
 13 28  1  0
 13 29  1  0
 17 30  1  0
 17 31  1  0
 18 32  1  0
 18 33  1  0
 20 34  1  0
 20 35  1  0
 21 36  1  0
 21 37  1  0
 22 38  1  0
M  END
$$$$
LIG
     RDKit          3D

 38 39  0  0  0  0  0  0  0  0999 V2000
   28.5580   15.7160    7.2730 N   0  0  0  0  0  0  0  0  0  0  0  0
   28.5830   14.6820    7.7450 C   0  0  0  0  0  0  0  0  0  0  0  0
   28.7130   13.3600    8.3510 C   0  0  0  0  0  0  0  0  0  0  0  0
   29.7090   12.5130    7.5840 C   0  0  0  0  0  0  0  0  0  0  0  0
   29.9180   12.6920    6.3980 O   0  0  0  0  0  0  0  0  0  0  0  0
   31.4263   11.8316    8.0684 N   0  0  0  0  0  0  0  0  0  0  0  0
   32.6580    9.2460    8.1260 C   0  0  0  0  0  0  0  0  0  0  0  0
   31.5630    9.4800    8.9430 C   0  0  0  0  0  0  0  0  0  0  0  0
   31.1650   10.7950    9.1290 N   0  0  0  0  0  0  0  0  0  0  0  0
   31.8380   11.8440    8.5230 C   0  0  0  0  0  0  0  0  0  0  0  0
   32.8900   11.5720    7.6690 C   0  0  0  0  0  0  0  0  0  0  0  0
   33.3940   12.4720    6.7660 O   0  0  0  0  0  0  0  0  0  0  0  0
   32.5070   13.2300    6.0470 C   0  0  0  0  0  0  0  0  0  0  0  0
   32.8430   14.5690    6.5820 C   0  0  0  0  0  0  0  0  0  0  0  0
   32.2450   15.0040    7.5510 O   0  0  0  0  0  0  0  0  0  0  0  0
   33.9260   15.1770    6.0590 N   0  0  0  0  0  0  0  0  0  0  0  0
   34.7260   15.9040    7.0650 C   0  0  0  0  0  0  0  0  0  0  0  0
   36.2000   15.5640    6.9400 C   0  0  0  0  0  0  0  0  0  0  0  0
   36.6530   15.7410    5.6230 O   0  0  0  0  0  0  0  0  0  0  0  0
   35.9790   14.7950    4.8070 C   0  0  0  0  0  0  0  0  0  0  0  0
   34.5050   15.1130    4.7140 C   0  0  0  0  0  0  0  0  0  0  0  0
   33.3470   10.2740    7.4930 C   0  0  0  0  0  0  0  0  0  0  0  0
   29.0452   13.4328    9.3910 H   0  0  0  0  0  0  0  0  0  0  0  0
   27.7465   12.8449    8.3544 H   0  0  0  0  0  0  0  0  0  0  0  0
   32.0484   12.5711    8.3786 H   0  0  0  0  0  0  0  0  0  0  0  0
   30.9875    8.7679    9.4337 H   0  0  0  0  0  0  0  0  0  0  0  0
   31.4713   12.7981    8.7653 H   0  0  0  0  0  0  0  0  0  0  0  0
   31.5426   12.9772    6.3836 H   0  0  0  0  0  0  0  0  0  0  0  0
   32.6357   13.1705    5.0164 H   0  0  0  0  0  0  0  0  0  0  0  0
   34.3376   15.5922    8.0444 H   0  0  0  0  0  0  0  0  0  0  0  0
   34.5669   16.9843    6.9697 H   0  0  0  0  0  0  0  0  0  0  0  0
   36.7893   16.2101    7.5894 H   0  0  0  0  0  0  0  0  0  0  0  0
   36.3778   14.5311    7.2289 H   0  0  0  0  0  0  0  0  0  0  0  0
   36.1393   13.8036    5.2335 H   0  0  0  0  0  0  0  0  0  0  0  0
   36.4401   14.8170    3.8194 H   0  0  0  0  0  0  0  0  0  0  0  0
   33.9819   14.3622    4.1220 H   0  0  0  0  0  0  0  0  0  0  0  0
   34.3494   16.0960    4.2642 H   0  0  0  0  0  0  0  0  0  0  0  0
   34.2127   10.0939    6.8890 H   0  0  0  0  0  0  0  0  0  0  0  0
  1  2  3  0
  2  3  1  0
  3  4  1  0
  4  5  2  0
  4  6  1  0
  6  7  1  0
  7  8  4  0
  8  9  4  0
  9 10  4  0
 10 11  4  0
 11 12  1  0
 12 13  1  0
 13 14  1  0
 14 15  2  0
 14 16  1  0
 16 17  1  0
 17 18  1  0
 18 19  1  0
 19 20  1  0
 20 21  1  0
 11 22  4  0
 22  7  4  0
 21 16  1  0
  3 23  1  0
  3 24  1  0
  6 25  1  0
  8 26  1  0
 10 27  1  0
 13 28  1  0
 13 29  1  0
 17 30  1  0
 17 31  1  0
 18 32  1  0
 18 33  1  0
 20 34  1  0
 20 35  1  0
 21 36  1  0
 21 37  1  0
 22 38  1  0
M  END
$$$$
LIG
     RDKit          3D

 38 39  0  0  0  0  0  0  0  0999 V2000
   28.5580   15.7160    7.2730 N   0  0  0  0  0  0  0  0  0  0  0  0
   28.5830   14.6820    7.7450 C   0  0  0  0  0  0  0  0  0  0  0  0
   28.7130   13.3600    8.3510 C   0  0  0  0  0  0  0  0  0  0  0  0
   29.7090   12.5130    7.5840 C   0  0  0  0  0  0  0  0  0  0  0  0
   29.9180   12.6920    6.3980 O   0  0  0  0  0  0  0  0  0  0  0  0
   30.5191   12.3155    8.6994 N   0  0  0  0  0  0  0  0  0  0  0  0
   31.1650   10.7950    9.1290 C   0  0  0  0  0  0  0  0  0  0  0  0
   31.5630    9.4800    8.9430 C   0  0  0  0  0  0  0  0  0  0  0  0
   32.6580    9.2460    8.1260 N   0  0  0  0  0  0  0  0  0  0  0  0
   33.3470   10.2740    7.4930 C   0  0  0  0  0  0  0  0  0  0  0  0
   32.8900   11.5720    7.6690 C   0  0  0  0  0  0  0  0  0  0  0  0
   33.3940   12.4720    6.7660 O   0  0  0  0  0  0  0  0  0  0  0  0
   32.5070   13.2300    6.0470 C   0  0  0  0  0  0  0  0  0  0  0  0
   32.8430   14.5690    6.5820 C   0  0  0  0  0  0  0  0  0  0  0  0
   32.2450   15.0040    7.5510 O   0  0  0  0  0  0  0  0  0  0  0  0
   33.9260   15.1770    6.0590 N   0  0  0  0  0  0  0  0  0  0  0  0
   34.5050   15.1130    4.7140 C   0  0  0  0  0  0  0  0  0  0  0  0
   35.9790   14.7950    4.8070 C   0  0  0  0  0  0  0  0  0  0  0  0
   36.6530   15.7410    5.6230 O   0  0  0  0  0  0  0  0  0  0  0  0
   36.2000   15.5640    6.9400 C   0  0  0  0  0  0  0  0  0  0  0  0
   34.7260   15.9040    7.0650 C   0  0  0  0  0  0  0  0  0  0  0  0
   31.8380   11.8440    8.5230 C   0  0  0  0  0  0  0  0  0  0  0  0
   29.0347   13.4374    9.3973 H   0  0  0  0  0  0  0  0  0  0  0  0
   27.7483   12.8374    8.3580 H   0  0  0  0  0  0  0  0  0  0  0  0
   30.6131   13.0204    9.4227 H   0  0  0  0  0  0  0  0  0  0  0  0
   31.1259    8.6322    9.3547 H   0  0  0  0  0  0  0  0  0  0  0  0
   34.1667    9.9751    6.9297 H   0  0  0  0  0  0  0  0  0  0  0  0
   31.5013   12.9990    6.3150 H   0  0  0  0  0  0  0  0  0  0  0  0
   32.7352   13.2033    5.0063 H   0  0  0  0  0  0  0  0  0  0  0  0
   34.3422   16.0533    4.1831 H   0  0  0  0  0  0  0  0  0  0  0  0
   33.9690   14.3186    4.1857 H   0  0  0  0  0  0  0  0  0  0  0  0
   36.4381   14.8232    3.8215 H   0  0  0  0  0  0  0  0  0  0  0  0
   36.1355   13.8097    5.2353 H   0  0  0  0  0  0  0  0  0  0  0  0
   36.7922   16.2039    7.5952 H   0  0  0  0  0  0  0  0  0  0  0  0
   36.3787   14.5265    7.2314 H   0  0  0  0  0  0  0  0  0  0  0  0
   34.3576   15.6695    8.0669 H   0  0  0  0  0  0  0  0  0  0  0  0
   34.5579   16.9700    6.8730 H   0  0  0  0  0  0  0  0  0  0  0  0
   31.5586   12.8748    8.6997 H   0  0  0  0  0  0  0  0  0  0  0  0
  1  2  3  0
  2  3  1  0
  3  4  1  0
  4  5  2  0
  4  6  1  0
  6  7  1  0
  7  8  4  0
  8  9  4  0
  9 10  4  0
 10 11  4  0
 11 12  1  0
 12 13  1  0
 13 14  1  0
 14 15  2  0
 14 16  1  0
 16 17  1  0
 17 18  1  0
 18 19  1  0
 19 20  1  0
 20 21  1  0
 11 22  4  0
 22  7  4  0
 21 16  1  0
  3 23  1  0
  3 24  1  0
  6 25  1  0
  8 26  1  0
 10 27  1  0
 13 28  1  0
 13 29  1  0
 17 30  1  0
 17 31  1  0
 18 32  1  0
 18 33  1  0
 20 34  1  0
 20 35  1  0
 21 36  1  0
 21 37  1  0
 22 38  1  0
M  END
$$$$
LIG
     RDKit          3D

 38 39  0  0  0  0  0  0  0  0999 V2000
   28.5580   15.7160    7.2730 N   0  0  0  0  0  0  0  0  0  0  0  0
   28.5830   14.6820    7.7450 C   0  0  0  0  0  0  0  0  0  0  0  0
   28.7130   13.3600    8.3510 C   0  0  0  0  0  0  0  0  0  0  0  0
   29.7090   12.5130    7.5840 C   0  0  0  0  0  0  0  0  0  0  0  0
   29.9180   12.6920    6.3980 O   0  0  0  0  0  0  0  0  0  0  0  0
   30.3770   11.5810    8.3040 N   0  0  0  0  0  0  0  0  0  0  0  0
   31.3079   11.3373    8.1573 C   0  0  0  0  0  0  0  0  0  0  0  0
   31.5630    9.4800    8.9430 C   0  0  0  0  0  0  0  0  0  0  0  0
   32.6580    9.2460    8.1260 N   0  0  0  0  0  0  0  0  0  0  0  0
   33.3470   10.2740    7.4930 C   0  0  0  0  0  0  0  0  0  0  0  0
   32.8900   11.5720    7.6690 C   0  0  0  0  0  0  0  0  0  0  0  0
   33.3940   12.4720    6.7660 O   0  0  0  0  0  0  0  0  0  0  0  0
   32.5070   13.2300    6.0470 C   0  0  0  0  0  0  0  0  0  0  0  0
   32.8430   14.5690    6.5820 C   0  0  0  0  0  0  0  0  0  0  0  0
   32.2450   15.0040    7.5510 O   0  0  0  0  0  0  0  0  0  0  0  0
   33.9260   15.1770    6.0590 N   0  0  0  0  0  0  0  0  0  0  0  0
   34.7260   15.9040    7.0650 C   0  0  0  0  0  0  0  0  0  0  0  0
   36.2000   15.5640    6.9400 C   0  0  0  0  0  0  0  0  0  0  0  0
   36.6530   15.7410    5.6230 O   0  0  0  0  0  0  0  0  0  0  0  0
   35.9790   14.7950    4.8070 C   0  0  0  0  0  0  0  0  0  0  0  0
   34.5050   15.1130    4.7140 C   0  0  0  0  0  0  0  0  0  0  0  0
   31.8380   11.8440    8.5230 C   0  0  0  0  0  0  0  0  0  0  0  0
   27.7450   12.8436    8.3787 H   0  0  0  0  0  0  0  0  0  0  0  0
   29.0552   13.4391    9.3905 H   0  0  0  0  0  0  0  0  0  0  0  0
   30.8268   11.8632    9.1772 H   0  0  0  0  0  0  0  0  0  0  0  0
   30.8868   10.2134    8.5308 H   0  0  0  0  0  0  0  0  0  0  0  0
   34.1647    9.9748    6.9270 H   0  0  0  0  0  0  0  0  0  0  0  0
   31.5011   12.9989    6.3138 H   0  0  0  0  0  0  0  0  0  0  0  0
   32.7399   13.2045    5.0073 H   0  0  0  0  0  0  0  0  0  0  0  0
   34.3731   15.6791    8.0712 H   0  0  0  0  0  0  0  0  0  0  0  0
   34.5599   16.9679    6.8702 H   0  0  0  0  0  0  0  0  0  0  0  0
   36.7898   16.2163    7.5995 H   0  0  0  0  0  0  0  0  0  0  0  0
   36.3906   14.5265    7.2577 H   0  0  0  0  0  0  0  0  0  0  0  0
   36.1440   13.7868    5.2151 H   0  0  0  0  0  0  0  0  0  0  0  0
   36.4366   14.8220    3.8095 H   0  0  0  0  0  0  0  0  0  0  0  0
   33.9913   14.3691    4.1098 H   0  0  0  0  0  0  0  0  0  0  0  0
   34.3551   16.0970    4.2687 H   0  0  0  0  0  0  0  0  0  0  0  0
   31.7949   11.3250    9.4809 H   0  0  0  0  0  0  0  0  0  0  0  0
  1  2  3  0
  2  3  1  0
  3  4  1  0
  4  5  2  0
  4  6  1  0
  6  7  1  0
  7  8  4  0
  8  9  4  0
  9 10  4  0
 10 11  4  0
 11 12  1  0
 12 13  1  0
 13 14  1  0
 14 15  2  0
 14 16  1  0
 16 17  1  0
 17 18  1  0
 18 19  1  0
 19 20  1  0
 20 21  1  0
 11 22  4  0
 22  7  4  0
 21 16  1  0
  3 23  1  0
  3 24  1  0
  6 25  1  0
  8 26  1  0
 10 27  1  0
 13 28  1  0
 13 29  1  0
 17 30  1  0
 17 31  1  0
 18 32  1  0
 18 33  1  0
 20 34  1  0
 20 35  1  0
 21 36  1  0
 21 37  1  0
 22 38  1  0
M  END
$$$$
LIG
     RDKit          3D

 38 39  0  0  0  0  0  0  0  0999 V2000
   28.5580   15.7160    7.2730 N   0  0  0  0  0  0  0  0  0  0  0  0
   28.5830   14.6820    7.7450 C   0  0  0  0  0  0  0  0  0  0  0  0
   28.7130   13.3600    8.3510 C   0  0  0  0  0  0  0  0  0  0  0  0
   29.7090   12.5130    7.5840 C   0  0  0  0  0  0  0  0  0  0  0  0
   29.9180   12.6920    6.3980 O   0  0  0  0  0  0  0  0  0  0  0  0
   30.3770   11.5810    8.3040 N   0  0  0  0  0  0  0  0  0  0  0  0
   31.1564   11.0212    8.2252 C   0  0  0  0  0  0  0  0  0  0  0  0
   31.5630    9.4800    8.9430 C   0  0  0  0  0  0  0  0  0  0  0  0
   32.6580    9.2460    8.1260 N   0  0  0  0  0  0  0  0  0  0  0  0
   33.3470   10.2740    7.4930 C   0  0  0  0  0  0  0  0  0  0  0  0
   32.8900   11.5720    7.6690 C   0  0  0  0  0  0  0  0  0  0  0  0
   33.3940   12.4720    6.7660 O   0  0  0  0  0  0  0  0  0  0  0  0
   32.5070   13.2300    6.0470 C   0  0  0  0  0  0  0  0  0  0  0  0
   32.8430   14.5690    6.5820 C   0  0  0  0  0  0  0  0  0  0  0  0
   32.2450   15.0040    7.5510 O   0  0  0  0  0  0  0  0  0  0  0  0
   33.9260   15.1770    6.0590 N   0  0  0  0  0  0  0  0  0  0  0  0
   34.5050   15.1130    4.7140 C   0  0  0  0  0  0  0  0  0  0  0  0
   35.9790   14.7950    4.8070 C   0  0  0  0  0  0  0  0  0  0  0  0
   36.6530   15.7410    5.6230 O   0  0  0  0  0  0  0  0  0  0  0  0
   36.2000   15.5640    6.9400 C   0  0  0  0  0  0  0  0  0  0  0  0
   34.7260   15.9040    7.0650 C   0  0  0  0  0  0  0  0  0  0  0  0
   31.8380   11.8440    8.5230 C   0  0  0  0  0  0  0  0  0  0  0  0
   27.7498   12.8385    8.3697 H   0  0  0  0  0  0  0  0  0  0  0  0
   29.0539   13.4459    9.3885 H   0  0  0  0  0  0  0  0  0  0  0  0
   30.4985   10.6495    7.8996 H   0  0  0  0  0  0  0  0  0  0  0  0
   31.6657   10.3743    9.5401 H   0  0  0  0  0  0  0  0  0  0  0  0
   34.1643    9.9754    6.9237 H   0  0  0  0  0  0  0  0  0  0  0  0
   31.5025   13.0056    6.3210 H   0  0  0  0  0  0  0  0  0  0  0  0
   32.6956   13.2164    5.0014 H   0  0  0  0  0  0  0  0  0  0  0  0
   33.9746   14.3170    4.1844 H   0  0  0  0  0  0  0  0  0  0  0  0
   34.3471   16.0577    4.1932 H   0  0  0  0  0  0  0  0  0  0  0  0
   36.4405   14.8161    3.8212 H   0  0  0  0  0  0  0  0  0  0  0  0
   36.1344   13.8097    5.2388 H   0  0  0  0  0  0  0  0  0  0  0  0
   36.7921   16.2007    7.5957 H   0  0  0  0  0  0  0  0  0  0  0  0
   36.3736   14.5256    7.2255 H   0  0  0  0  0  0  0  0  0  0  0  0
   34.5571   16.9707    6.8728 H   0  0  0  0  0  0  0  0  0  0  0  0
   34.3568   15.6752    8.0703 H   0  0  0  0  0  0  0  0  0  0  0  0
   30.8243   11.7177    8.1456 H   0  0  0  0  0  0  0  0  0  0  0  0
  1  2  3  0
  2  3  1  0
  3  4  1  0
  4  5  2  0
  4  6  1  0
  6  7  1  0
  7  8  4  0
  8  9  4  0
  9 10  4  0
 10 11  4  0
 11 12  1  0
 12 13  1  0
 13 14  1  0
 14 15  2  0
 14 16  1  0
 16 17  1  0
 17 18  1  0
 18 19  1  0
 19 20  1  0
 20 21  1  0
 11 22  4  0
 22  7  4  0
 21 16  1  0
  3 23  1  0
  3 24  1  0
  6 25  1  0
  8 26  1  0
 10 27  1  0
 13 28  1  0
 13 29  1  0
 17 30  1  0
 17 31  1  0
 18 32  1  0
 18 33  1  0
 20 34  1  0
 20 35  1  0
 21 36  1  0
 21 37  1  0
 22 38  1  0
M  END
$$$$
