LIG
     RDKit          3D

 41 41  0  0  0  0  0  0  0  0999 V2000
   -5.5171   -0.6912    2.4154 C   0  0  0  0  0  0  0  0  0  0  0  0
   -4.3792    0.2891    2.5562 C   0  0  0  0  0  0  0  0  0  0  0  0
   -4.5109    1.3087    3.2253 O   0  0  0  0  0  0  0  0  0  0  0  0
   -3.2646   -0.1104    1.8459 N   0  0  0  0  0  0  0  0  0  0  0  0
   -2.0105    0.5224    1.7154 C   0  0  0  0  0  0  0  0  0  0  0  0
   -1.7349    1.7138    2.4051 C   0  0  0  0  0  0  0  0  0  0  0  0
   -0.4990    2.3563    2.2985 C   0  0  0  0  0  0  0  0  0  0  0  0
    0.4952    1.8300    1.4856 C   0  0  0  0  0  0  0  0  0  0  0  0
    0.2438    0.6583    0.7746 C   0  0  0  0  0  0  0  0  0  0  0  0
    1.1448    0.0657   -0.0809 O   0  0  0  0  0  0  0  0  0  0  0  0
    2.2574    0.8369   -0.5221 C   0  0  0  0  0  0  0  0  0  0  0  0
    2.8131    0.2285   -1.8174 C   0  0  0  0  0  0  0  0  0  0  0  0
    2.1515   -0.5847   -2.4713 O   0  0  0  0  0  0  0  0  0  0  0  0
    4.0845    0.6424   -2.2253 N   0  0  0  0  0  0  0  0  0  0  0  0
    4.6305    0.0937   -3.4561 C   0  0  0  0  0  0  0  0  0  0  0  0
    4.8240    1.7583   -1.6531 C   0  0  0  0  0  0  0  0  0  0  0  0
   -0.9976   -0.0274    0.8958 C   0  0  0  0  0  0  0  0  0  0  0  0
   -1.0382   -1.2316    0.1415 N   0  0  0  0  0  0  0  0  0  0  0  0
   -2.0116   -2.1699   -0.0932 C   0  0  0  0  0  0  0  0  0  0  0  0
   -3.1648   -2.1501    0.3276 O   0  0  0  0  0  0  0  0  0  0  0  0
   -1.5040   -3.3216   -0.9738 C   0  0  0  0  0  0  0  0  0  0  0  0
   -0.2011   -3.1203   -1.5065 O   0  0  0  0  0  0  0  0  0  0  0  0
   -5.1606   -1.7144    2.5644 H   0  0  0  0  0  0  0  0  0  0  0  0
   -5.9601   -0.5930    1.4210 H   0  0  0  0  0  0  0  0  0  0  0  0
   -6.2802   -0.4802    3.1712 H   0  0  0  0  0  0  0  0  0  0  0  0
   -3.3749   -0.9693    1.3091 H   0  0  0  0  0  0  0  0  0  0  0  0
   -2.4720    2.1756    3.0556 H   0  0  0  0  0  0  0  0  0  0  0  0
   -0.3224    3.2721    2.8572 H   0  0  0  0  0  0  0  0  0  0  0  0
    1.4464    2.3476    1.4343 H   0  0  0  0  0  0  0  0  0  0  0  0
    3.0242    0.8032    0.2595 H   0  0  0  0  0  0  0  0  0  0  0  0
    1.9646    1.8656   -0.7612 H   0  0  0  0  0  0  0  0  0  0  0  0
    4.1067   -0.8122   -3.7701 H   0  0  0  0  0  0  0  0  0  0  0  0
    5.6858   -0.1476   -3.3007 H   0  0  0  0  0  0  0  0  0  0  0  0
    4.5409    0.8470   -4.2446 H   0  0  0  0  0  0  0  0  0  0  0  0
    5.8580    1.4458   -1.4800 H   0  0  0  0  0  0  0  0  0  0  0  0
    4.4013    2.1118   -0.7129 H   0  0  0  0  0  0  0  0  0  0  0  0
    4.8096    2.5843   -2.3700 H   0  0  0  0  0  0  0  0  0  0  0  0
   -0.1447   -1.4418   -0.3147 H   0  0  0  0  0  0  0  0  0  0  0  0
   -2.2057   -3.4756   -1.8010 H   0  0  0  0  0  0  0  0  0  0  0  0
   -1.4748   -4.2242   -0.3546 H   0  0  0  0  0  0  0  0  0  0  0  0
   -0.2535   -2.4913   -2.2496 H   0  0  0  0  0  0  0  0  0  0  0  0
  1  2  1  0
  2  3  2  0
  2  4  1  0
  4  5  1  0
  5  6  2  0
  6  7  1  0
  7  8  2  0
  8  9  1  0
  9 10  1  0
 10 11  1  0
 11 12  1  0
 12 13  2  0
 12 14  1  0
 14 15  1  0
 14 16  1  0
  9 17  2  0
 17 18  1  0
 18 19  1  0
 19 20  2  0
 19 21  1  0
 21 22  1  0
 17  5  1  0
  1 23  1  0
  1 24  1  0
  1 25  1  0
  4 26  1  0
  6 27  1  0
  7 28  1  0
  8 29  1  0
 11 30  1  0
 11 31  1  0
 15 32  1  0
 15 33  1  0
 15 34  1  0
 16 35  1  0
 16 36  1  0
 16 37  1  0
 18 38  1  0
 21 39  1  0
 21 40  1  0
 22 41  1  0
M  END
