LIG
     RDKit          3D

 48 49  0  0  0  0  0  0  0  0999 V2000
   33.7824    9.2741    5.7834 C   0  0  0  0  0  0  0  0  0  0  0  0
   32.6400    9.9139    6.5161 C   0  0  0  0  0  0  0  0  0  0  0  0
   31.8554    9.2055    7.4334 C   0  0  0  0  0  0  0  0  0  0  0  0
   30.8251    9.8449    8.1287 C   0  0  0  0  0  0  0  0  0  0  0  0
   30.5480   11.1886    7.8908 C   0  0  0  0  0  0  0  0  0  0  0  0
   29.4932   11.7405    8.5428 O   0  0  0  0  0  0  0  0  0  0  0  0
   29.3631   13.1501    8.6422 C   0  0  0  0  0  0  0  0  0  0  0  0
   30.3701   13.9072    9.5445 C   0  0  0  0  0  0  0  0  0  0  0  0
   31.5848   13.7285    9.4662 O   0  0  0  0  0  0  0  0  0  0  0  0
   29.8712   14.8642   10.4320 N   0  0  0  0  0  0  0  0  0  0  0  0
   30.8586   15.5652   11.2363 C   0  0  0  0  0  0  0  0  0  0  0  0
   28.5745   14.6679   11.0276 C   0  0  0  0  0  0  0  0  0  0  0  0
   31.2804   11.8645    6.9368 C   0  0  0  0  0  0  0  0  0  0  0  0
   32.3151   11.2404    6.2455 C   0  0  0  0  0  0  0  0  0  0  0  0
   33.0316   11.8175    5.2350 O   0  0  0  0  0  0  0  0  0  0  0  0
   32.7864   13.1780    4.9236 C   0  0  0  0  0  0  0  0  0  0  0  0
   33.5053   13.9953    5.9643 C   0  0  0  0  0  0  0  0  0  0  0  0
   33.1313   13.9494    7.1384 O   0  0  0  0  0  0  0  0  0  0  0  0
   34.5943   14.7481    5.6028 N   0  0  0  0  0  0  0  0  0  0  0  0
   35.5641   14.9222    6.6749 C   0  0  0  0  0  0  0  0  0  0  0  0
   36.5847   13.7898    6.5349 C   0  0  0  0  0  0  0  0  0  0  0  0
   37.2886   13.9444    5.2836 O   0  0  0  0  0  0  0  0  0  0  0  0
   36.3691   13.7966    4.1837 C   0  0  0  0  0  0  0  0  0  0  0  0
   35.2257   14.8130    4.2789 C   0  0  0  0  0  0  0  0  0  0  0  0
   34.6252    9.9637    5.6743 H   0  0  0  0  0  0  0  0  0  0  0  0
   33.4670    8.9657    4.7844 H   0  0  0  0  0  0  0  0  0  0  0  0
   34.1537    8.4014    6.3151 H   0  0  0  0  0  0  0  0  0  0  0  0
   32.0414    8.1526    7.6281 H   0  0  0  0  0  0  0  0  0  0  0  0
   30.2326    9.2814    8.8443 H   0  0  0  0  0  0  0  0  0  0  0  0
   28.3443   13.3149    8.9979 H   0  0  0  0  0  0  0  0  0  0  0  0
   29.3638   13.6268    7.6550 H   0  0  0  0  0  0  0  0  0  0  0  0
   30.4772   16.5231   11.5868 H   0  0  0  0  0  0  0  0  0  0  0  0
   31.0869   14.9512   12.1003 H   0  0  0  0  0  0  0  0  0  0  0  0
   31.7771   15.7487   10.6738 H   0  0  0  0  0  0  0  0  0  0  0  0
   27.8179   15.0535   10.3408 H   0  0  0  0  0  0  0  0  0  0  0  0
   28.5287   15.1775   11.9914 H   0  0  0  0  0  0  0  0  0  0  0  0
   28.3668   13.6157   11.2078 H   0  0  0  0  0  0  0  0  0  0  0  0
   31.0285   12.8895    6.7235 H   0  0  0  0  0  0  0  0  0  0  0  0
   33.1680   13.3315    3.9170 H   0  0  0  0  0  0  0  0  0  0  0  0
   31.7257   13.4430    4.8695 H   0  0  0  0  0  0  0  0  0  0  0  0
   36.0355   15.8868    6.5118 H   0  0  0  0  0  0  0  0  0  0  0  0
   35.1108   14.9127    7.6698 H   0  0  0  0  0  0  0  0  0  0  0  0
   36.0943   12.8136    6.5267 H   0  0  0  0  0  0  0  0  0  0  0  0
   37.3151   13.7801    7.3466 H   0  0  0  0  0  0  0  0  0  0  0  0
   36.9311   13.9470    3.2568 H   0  0  0  0  0  0  0  0  0  0  0  0
   35.9858   12.7693    4.1809 H   0  0  0  0  0  0  0  0  0  0  0  0
   35.6527   15.8126    4.1655 H   0  0  0  0  0  0  0  0  0  0  0  0
   34.5031   14.6866    3.4721 H   0  0  0  0  0  0  0  0  0  0  0  0
  1  2  1  0
  2  3  2  0
  3  4  1  0
  4  5  2  0
  5  6  1  0
  6  7  1  0
  7  8  1  0
  8  9  2  0
  8 10  1  0
 10 11  1  0
 10 12  1  0
  5 13  1  0
 13 14  2  0
 14 15  1  0
 15 16  1  0
 16 17  1  0
 17 18  2  0
 17 19  1  0
 19 20  1  0
 20 21  1  0
 21 22  1  0
 22 23  1  0
 23 24  1  0
 14  2  1  0
 24 19  1  0
  1 25  1  0
  1 26  1  0
  1 27  1  0
  3 28  1  0
  4 29  1  0
  7 30  1  0
  7 31  1  0
 11 32  1  0
 11 33  1  0
 11 34  1  0
 12 35  1  0
 12 36  1  0
 12 37  1  0
 13 38  1  0
 16 39  1  0
 16 40  1  0
 20 41  1  0
 20 42  1  0
 21 43  1  0
 21 44  1  0
 23 45  1  0
 23 46  1  0
 24 47  1  0
 24 48  1  0
M  END
