LIG
     RDKit          3D

 33 33  0  0  0  0  0  0  0  0999 V2000
   28.1410   15.4480   10.5470 C   0  0  0  0  0  0  0  0  0  0  0  0
   29.5320   15.0110   10.4940 N   0  0  0  0  0  0  0  0  0  0  0  0
   30.5000   15.9370   11.0760 C   0  0  0  0  0  0  0  0  0  0  0  0
   29.9260   13.8300    9.9860 C   0  0  0  0  0  0  0  0  0  0  0  0
   31.1030   13.5010    9.9720 O   0  0  0  0  0  0  0  0  0  0  0  0
   28.8670   12.8920    9.4310 C   0  0  0  0  0  0  0  0  0  0  0  0
   29.4280   11.6110    9.1450 O   0  0  0  0  0  0  0  0  0  0  0  0
   30.1520   11.4340    7.9910 C   0  0  0  0  0  0  0  0  0  0  0  0
   30.4800   10.1020    7.7350 C   0  0  0  0  0  0  0  0  0  0  0  0
   31.2880    9.8340    6.6350 N   0  0  0  0  0  0  0  0  0  0  0  0
   31.7330   10.8470    5.8070 C   0  0  0  0  0  0  0  0  0  0  0  0
   31.3810   12.1530    6.0670 C   0  0  0  0  0  0  0  0  0  0  0  0
   33.6520   12.7090    6.6590 N   0  0  0  0  0  0  0  0  0  0  0  0
   34.4250   13.2280    7.6390 C   0  0  0  0  0  0  0  0  0  0  0  0
   34.9827   12.5653    8.5446 O   0  0  0  0  0  0  0  0  0  0  0  0
   34.6680   14.7180    7.5670 C   0  0  0  0  0  0  0  0  0  0  0  0
   35.0470   15.1300    6.2680 S   0  0  0  0  0  0  0  0  0  0  0  0
   30.5900   12.4580    7.1610 C   0  0  0  0  0  0  0  0  0  0  0  0
   27.5968   15.1750    9.6401 H   0  0  0  0  0  0  0  0  0  0  0  0
   27.9598   16.1297    9.7117 H   0  0  0  0  0  0  0  0  0  0  0  0
   27.4883   14.5755   10.4610 H   0  0  0  0  0  0  0  0  0  0  0  0
   31.2627   16.2274   10.3532 H   0  0  0  0  0  0  0  0  0  0  0  0
   31.4970   15.4908   11.0331 H   0  0  0  0  0  0  0  0  0  0  0  0
   30.4853   16.8636   10.4966 H   0  0  0  0  0  0  0  0  0  0  0  0
   28.0802   12.7891   10.1929 H   0  0  0  0  0  0  0  0  0  0  0  0
   28.4311   13.3502    8.5318 H   0  0  0  0  0  0  0  0  0  0  0  0
   30.1665    9.2962    8.3015 H   0  0  0  0  0  0  0  0  0  0  0  0
   32.3361   10.5307    5.0033 H   0  0  0  0  0  0  0  0  0  0  0  0
   33.9545   12.3983    5.6476 H   0  0  0  0  0  0  0  0  0  0  0  0
   33.6989   15.1606    7.9999 H   0  0  0  0  0  0  0  0  0  0  0  0
   35.4036   14.8971    8.4363 H   0  0  0  0  0  0  0  0  0  0  0  0
   34.3008   14.3384    5.4192 H   0  0  0  0  0  0  0  0  0  0  0  0
   30.3131   13.4814    7.3688 H   0  0  0  0  0  0  0  0  0  0  0  0
  1  2  1  0
  2  3  1  0
  2  4  1  0
  4  5  2  0
  4  6  1  0
  6  7  1  0
  7  8  1  0
  8  9  4  0
  9 10  4  0
 10 11  4  0
 11 12  4  0
 12 13  1  0
 13 14  1  0
 14 15  2  0
 14 16  1  0
 16 17  1  0
 12 18  4  0
 18  8  4  0
  1 19  1  0
  1 20  1  0
  1 21  1  0
  3 22  1  0
  3 23  1  0
  3 24  1  0
  6 25  1  0
  6 26  1  0
  9 27  1  0
 11 28  1  0
 13 29  1  0
 16 30  1  0
 16 31  1  0
 17 32  1  0
 18 33  1  0
M  END
$$$$
LIG
     RDKit          3D

 33 33  0  0  0  0  0  0  0  0999 V2000
   30.5000   15.9370   11.0760 C   0  0  0  0  0  0  0  0  0  0  0  0
   29.5320   15.0110   10.4940 N   0  0  0  0  0  0  0  0  0  0  0  0
   28.1410   15.4480   10.5470 C   0  0  0  0  0  0  0  0  0  0  0  0
   29.9260   13.8300    9.9860 C   0  0  0  0  0  0  0  0  0  0  0  0
   31.1030   13.5010    9.9720 O   0  0  0  0  0  0  0  0  0  0  0  0
   28.8670   12.8920    9.4310 C   0  0  0  0  0  0  0  0  0  0  0  0
   29.4280   11.6110    9.1450 O   0  0  0  0  0  0  0  0  0  0  0  0
   30.1520   11.4340    7.9910 C   0  0  0  0  0  0  0  0  0  0  0  0
   30.4800   10.1020    7.7350 C   0  0  0  0  0  0  0  0  0  0  0  0
   31.2880    9.8340    6.6350 N   0  0  0  0  0  0  0  0  0  0  0  0
   31.7330   10.8470    5.8070 C   0  0  0  0  0  0  0  0  0  0  0  0
   31.3810   12.1530    6.0670 C   0  0  0  0  0  0  0  0  0  0  0  0
   33.6520   12.7090    6.6590 N   0  0  0  0  0  0  0  0  0  0  0  0
   34.4250   13.2280    7.6390 C   0  0  0  0  0  0  0  0  0  0  0  0
   34.9692   12.5629    8.5507 O   0  0  0  0  0  0  0  0  0  0  0  0
   34.6680   14.7180    7.5670 C   0  0  0  0  0  0  0  0  0  0  0  0
   35.0470   15.1300    6.2680 S   0  0  0  0  0  0  0  0  0  0  0  0
   30.5900   12.4580    7.1610 C   0  0  0  0  0  0  0  0  0  0  0  0
   30.2349   16.1244   12.1198 H   0  0  0  0  0  0  0  0  0  0  0  0
   30.0255   16.8512   11.4327 H   0  0  0  0  0  0  0  0  0  0  0  0
   30.4635   16.8723   10.5116 H   0  0  0  0  0  0  0  0  0  0  0  0
   27.5747   14.9342    9.7657 H   0  0  0  0  0  0  0  0  0  0  0  0
   27.4599   14.6136   10.7294 H   0  0  0  0  0  0  0  0  0  0  0  0
   27.8872   15.9136    9.5908 H   0  0  0  0  0  0  0  0  0  0  0  0
   28.4787   13.3295    8.5047 H   0  0  0  0  0  0  0  0  0  0  0  0
   28.0805   12.7773   10.1849 H   0  0  0  0  0  0  0  0  0  0  0  0
   30.1830    9.2761    8.2818 H   0  0  0  0  0  0  0  0  0  0  0  0
   32.3334   10.5196    5.0018 H   0  0  0  0  0  0  0  0  0  0  0  0
   33.9515   12.4013    5.6401 H   0  0  0  0  0  0  0  0  0  0  0  0
   35.4021   14.9008    8.4397 H   0  0  0  0  0  0  0  0  0  0  0  0
   33.6985   15.1611    8.0049 H   0  0  0  0  0  0  0  0  0  0  0  0
   34.1969   14.4456    5.4244 H   0  0  0  0  0  0  0  0  0  0  0  0
   30.3030   13.4756    7.3892 H   0  0  0  0  0  0  0  0  0  0  0  0
  1  2  1  0
  2  3  1  0
  2  4  1  0
  4  5  2  0
  4  6  1  0
  6  7  1  0
  7  8  1  0
  8  9  4  0
  9 10  4  0
 10 11  4  0
 11 12  4  0
 12 13  1  0
 13 14  1  0
 14 15  2  0
 14 16  1  0
 16 17  1  0
 12 18  4  0
 18  8  4  0
  1 19  1  0
  1 20  1  0
  1 21  1  0
  3 22  1  0
  3 23  1  0
  3 24  1  0
  6 25  1  0
  6 26  1  0
  9 27  1  0
 11 28  1  0
 13 29  1  0
 16 30  1  0
 16 31  1  0
 17 32  1  0
 18 33  1  0
M  END
$$$$
LIG
     RDKit          3D

 33 33  0  0  0  0  0  0  0  0999 V2000
   28.1410   15.4480   10.5470 C   0  0  0  0  0  0  0  0  0  0  0  0
   29.5320   15.0110   10.4940 N   0  0  0  0  0  0  0  0  0  0  0  0
   30.5000   15.9370   11.0760 C   0  0  0  0  0  0  0  0  0  0  0  0
   29.9260   13.8300    9.9860 C   0  0  0  0  0  0  0  0  0  0  0  0
   31.1030   13.5010    9.9720 O   0  0  0  0  0  0  0  0  0  0  0  0
   28.8670   12.8920    9.4310 C   0  0  0  0  0  0  0  0  0  0  0  0
   29.4280   11.6110    9.1450 O   0  0  0  0  0  0  0  0  0  0  0  0
   30.1520   11.4340    7.9910 C   0  0  0  0  0  0  0  0  0  0  0  0
   30.4800   10.1020    7.7350 C   0  0  0  0  0  0  0  0  0  0  0  0
   31.2880    9.8340    6.6350 N   0  0  0  0  0  0  0  0  0  0  0  0
   31.7330   10.8470    5.8070 C   0  0  0  0  0  0  0  0  0  0  0  0
   31.3810   12.1530    6.0670 C   0  0  0  0  0  0  0  0  0  0  0  0
   33.6520   12.7090    6.6590 N   0  0  0  0  0  0  0  0  0  0  0  0
   34.4250   13.2280    7.6390 C   0  0  0  0  0  0  0  0  0  0  0  0
   34.9576   12.5654    8.5621 O   0  0  0  0  0  0  0  0  0  0  0  0
   34.6680   14.7180    7.5670 C   0  0  0  0  0  0  0  0  0  0  0  0
   35.0470   15.1300    6.2680 S   0  0  0  0  0  0  0  0  0  0  0  0
   30.5900   12.4580    7.1610 C   0  0  0  0  0  0  0  0  0  0  0  0
   27.5210   14.6300   10.9188 H   0  0  0  0  0  0  0  0  0  0  0  0
   27.4892   14.8354    9.9272 H   0  0  0  0  0  0  0  0  0  0  0  0
   27.8256   15.7112    9.5326 H   0  0  0  0  0  0  0  0  0  0  0  0
   31.5164   15.7313   10.7360 H   0  0  0  0  0  0  0  0  0  0  0  0
   31.0034   16.4698   10.2651 H   0  0  0  0  0  0  0  0  0  0  0  0
   31.2358   15.3673   11.6508 H   0  0  0  0  0  0  0  0  0  0  0  0
   28.4771   13.3326    8.5070 H   0  0  0  0  0  0  0  0  0  0  0  0
   28.0821   12.7722   10.1869 H   0  0  0  0  0  0  0  0  0  0  0  0
   30.1825    9.2765    8.2839 H   0  0  0  0  0  0  0  0  0  0  0  0
   32.3252   10.5164    4.9994 H   0  0  0  0  0  0  0  0  0  0  0  0
   33.9461   12.4181    5.6314 H   0  0  0  0  0  0  0  0  0  0  0  0
   33.6965   15.1615    8.0051 H   0  0  0  0  0  0  0  0  0  0  0  0
   35.3995   14.9119    8.4439 H   0  0  0  0  0  0  0  0  0  0  0  0
   36.0954   14.2958    5.9350 H   0  0  0  0  0  0  0  0  0  0  0  0
   30.3017   13.4747    7.3877 H   0  0  0  0  0  0  0  0  0  0  0  0
  1  2  1  0
  2  3  1  0
  2  4  1  0
  4  5  2  0
  4  6  1  0
  6  7  1  0
  7  8  1  0
  8  9  4  0
  9 10  4  0
 10 11  4  0
 11 12  4  0
 12 13  1  0
 13 14  1  0
 14 15  2  0
 14 16  1  0
 16 17  1  0
 12 18  4  0
 18  8  4  0
  1 19  1  0
  1 20  1  0
  1 21  1  0
  3 22  1  0
  3 23  1  0
  3 24  1  0
  6 25  1  0
  6 26  1  0
  9 27  1  0
 11 28  1  0
 13 29  1  0
 16 30  1  0
 16 31  1  0
 17 32  1  0
 18 33  1  0
M  END
$$$$
