LIG
     RDKit          3D

 45 46  0  0  0  0  0  0  0  0999 V2000
   31.7801   16.9324    7.9556 C   0  0  0  0  0  0  0  0  0  0  0  0
   32.4504   15.9821    8.8393 N   0  0  0  0  0  0  0  0  0  0  0  0
   33.3517   16.6373    9.7604 C   0  0  0  0  0  0  0  0  0  0  0  0
   32.3672   14.5833    8.8191 C   0  0  0  0  0  0  0  0  0  0  0  0
   33.0829   13.9075    9.5606 O   0  0  0  0  0  0  0  0  0  0  0  0
   31.3464   13.8539    7.9242 C   0  0  0  0  0  0  0  0  0  0  0  0
   31.2315   12.4736    7.5839 O   0  0  0  0  0  0  0  0  0  0  0  0
   32.1349   11.7552    6.9047 C   0  0  0  0  0  0  0  0  0  0  0  0
   33.3241   12.3095    6.5727 C   0  0  0  0  0  0  0  0  0  0  0  0
   34.0138   11.6951    5.5662 C   0  0  0  0  0  0  0  0  0  0  0  0
   34.7014   12.5104    4.7131 O   0  0  0  0  0  0  0  0  0  0  0  0
   33.8079   13.5414    4.2210 C   0  0  0  0  0  0  0  0  0  0  0  0
   33.8145   14.8381    5.0537 C   0  0  0  0  0  0  0  0  0  0  0  0
   32.8059   15.2180    5.6489 O   0  0  0  0  0  0  0  0  0  0  0  0
   35.0034   15.5394    5.1143 N   0  0  0  0  0  0  0  0  0  0  0  0
   35.2254   16.4835    6.2079 C   0  0  0  0  0  0  0  0  0  0  0  0
   36.2501   15.9026    7.1891 C   0  0  0  0  0  0  0  0  0  0  0  0
   37.4712   15.5783    6.4967 O   0  0  0  0  0  0  0  0  0  0  0  0
   37.2305   14.5972    5.4733 C   0  0  0  0  0  0  0  0  0  0  0  0
   36.2400   15.1434    4.4462 C   0  0  0  0  0  0  0  0  0  0  0  0
   33.8350   10.3448    5.2751 C   0  0  0  0  0  0  0  0  0  0  0  0
   32.7866    9.6620    5.8832 C   0  0  0  0  0  0  0  0  0  0  0  0
   31.8877   10.3984    6.6359 C   0  0  0  0  0  0  0  0  0  0  0  0
   30.8315    9.7727    7.1808 F   0  0  0  0  0  0  0  0  0  0  0  0
   32.5401   17.5822    7.5088 H   0  0  0  0  0  0  0  0  0  0  0  0
   31.1426   17.6046    8.5403 H   0  0  0  0  0  0  0  0  0  0  0  0
   31.2674   16.4817    7.1070 H   0  0  0  0  0  0  0  0  0  0  0  0
   32.7668   17.1750   10.5081 H   0  0  0  0  0  0  0  0  0  0  0  0
   34.0723   15.9517   10.2098 H   0  0  0  0  0  0  0  0  0  0  0  0
   33.9502   17.3745    9.2130 H   0  0  0  0  0  0  0  0  0  0  0  0
   30.4993   13.9100    8.5933 H   0  0  0  0  0  0  0  0  0  0  0  0
   31.1292   14.4268    7.0252 H   0  0  0  0  0  0  0  0  0  0  0  0
   33.6134   13.2864    6.9245 H   0  0  0  0  0  0  0  0  0  0  0  0
   34.1190   13.7868    3.1990 H   0  0  0  0  0  0  0  0  0  0  0  0
   32.7740   13.1822    4.1107 H   0  0  0  0  0  0  0  0  0  0  0  0
   35.6149   17.4046    5.7594 H   0  0  0  0  0  0  0  0  0  0  0  0
   34.3001   16.7191    6.7249 H   0  0  0  0  0  0  0  0  0  0  0  0
   36.4903   16.6385    7.9624 H   0  0  0  0  0  0  0  0  0  0  0  0
   35.8672   15.0014    7.6825 H   0  0  0  0  0  0  0  0  0  0  0  0
   36.8688   13.6752    5.9418 H   0  0  0  0  0  0  0  0  0  0  0  0
   38.1886   14.3790    4.9919 H   0  0  0  0  0  0  0  0  0  0  0  0
   36.0791   14.4234    3.6437 H   0  0  0  0  0  0  0  0  0  0  0  0
   36.6492   16.0530    3.9900 H   0  0  0  0  0  0  0  0  0  0  0  0
   34.4533    9.8546    4.5300 H   0  0  0  0  0  0  0  0  0  0  0  0
   32.6099    8.6085    5.7007 H   0  0  0  0  0  0  0  0  0  0  0  0
  1  2  1  0
  2  3  1  0
  2  4  1  0
  4  5  2  0
  4  6  1  0
  6  7  1  0
  7  8  1  0
  8  9  2  0
  9 10  1  0
 10 11  1  0
 11 12  1  0
 12 13  1  0
 13 14  2  0
 13 15  1  0
 15 16  1  0
 16 17  1  0
 17 18  1  0
 18 19  1  0
 19 20  1  0
 10 21  2  0
 21 22  1  0
 22 23  2  0
 23 24  1  0
 23  8  1  0
 20 15  1  0
  1 25  1  0
  1 26  1  0
  1 27  1  0
  3 28  1  0
  3 29  1  0
  3 30  1  0
  6 31  1  0
  6 32  1  0
  9 33  1  0
 12 34  1  0
 12 35  1  0
 16 36  1  0
 16 37  1  0
 17 38  1  0
 17 39  1  0
 19 40  1  0
 19 41  1  0
 20 42  1  0
 20 43  1  0
 21 44  1  0
 22 45  1  0
M  END
