LIG
     RDKit          3D

 41 41  0  0  0  0  0  0  0  0999 V2000
   29.2405   14.5764    8.7803 C   0  0  0  0  0  0  0  0  0  0  0  0
   29.6014   13.3810    7.9454 C   0  0  0  0  0  0  0  0  0  0  0  0
   28.7386   12.8020    7.2886 O   0  0  0  0  0  0  0  0  0  0  0  0
   30.9470   13.0645    7.9628 N   0  0  0  0  0  0  0  0  0  0  0  0
   31.4524   11.8273    7.5090 C   0  0  0  0  0  0  0  0  0  0  0  0
   30.7681   10.6567    7.8239 C   0  0  0  0  0  0  0  0  0  0  0  0
   31.2541    9.4261    7.4039 C   0  0  0  0  0  0  0  0  0  0  0  0
   32.3721    9.3617    6.5733 C   0  0  0  0  0  0  0  0  0  0  0  0
   33.0709   10.5151    6.2321 C   0  0  0  0  0  0  0  0  0  0  0  0
   34.2094   10.5554    5.4688 O   0  0  0  0  0  0  0  0  0  0  0  0
   34.6276    9.3915    4.7665 C   0  0  0  0  0  0  0  0  0  0  0  0
   34.0392    9.2667    3.3582 C   0  0  0  0  0  0  0  0  0  0  0  0
   33.4582   10.2197    2.8301 O   0  0  0  0  0  0  0  0  0  0  0  0
   34.1868    8.0491    2.6844 N   0  0  0  0  0  0  0  0  0  0  0  0
   35.2244    7.0887    3.0379 C   0  0  0  0  0  0  0  0  0  0  0  0
   33.7330    8.0311    1.3000 C   0  0  0  0  0  0  0  0  0  0  0  0
   32.6545   11.7436    6.7825 C   0  0  0  0  0  0  0  0  0  0  0  0
   33.4906   12.8698    6.5814 N   0  0  0  0  0  0  0  0  0  0  0  0
   34.1071   13.4641    7.6741 C   0  0  0  0  0  0  0  0  0  0  0  0
   33.8133   13.2428    8.8489 O   0  0  0  0  0  0  0  0  0  0  0  0
   35.2318   14.4189    7.2795 C   0  0  0  0  0  0  0  0  0  0  0  0
   35.1340   14.8934    5.9452 O   0  0  0  0  0  0  0  0  0  0  0  0
   28.9349   15.3962    8.1250 H   0  0  0  0  0  0  0  0  0  0  0  0
   30.0828   14.9043    9.3957 H   0  0  0  0  0  0  0  0  0  0  0  0
   28.4146   14.3109    9.4464 H   0  0  0  0  0  0  0  0  0  0  0  0
   31.6212   13.8119    8.0520 H   0  0  0  0  0  0  0  0  0  0  0  0
   29.8703   10.6845    8.4331 H   0  0  0  0  0  0  0  0  0  0  0  0
   30.7331    8.5149    7.6966 H   0  0  0  0  0  0  0  0  0  0  0  0
   32.6868    8.3801    6.2535 H   0  0  0  0  0  0  0  0  0  0  0  0
   35.7038    9.5156    4.6104 H   0  0  0  0  0  0  0  0  0  0  0  0
   34.5034    8.4889    5.3591 H   0  0  0  0  0  0  0  0  0  0  0  0
   35.4689    7.1026    4.0985 H   0  0  0  0  0  0  0  0  0  0  0  0
   36.1315    7.3555    2.4855 H   0  0  0  0  0  0  0  0  0  0  0  0
   34.9240    6.0788    2.7562 H   0  0  0  0  0  0  0  0  0  0  0  0
   34.4014    8.6626    0.7056 H   0  0  0  0  0  0  0  0  0  0  0  0
   32.7167    8.4293    1.2309 H   0  0  0  0  0  0  0  0  0  0  0  0
   33.7533    7.0179    0.8929 H   0  0  0  0  0  0  0  0  0  0  0  0
   34.1473   12.7696    5.8062 H   0  0  0  0  0  0  0  0  0  0  0  0
   35.1995   15.2630    7.9663 H   0  0  0  0  0  0  0  0  0  0  0  0
   36.1849   13.8957    7.3939 H   0  0  0  0  0  0  0  0  0  0  0  0
   35.1576   15.8759    5.9634 H   0  0  0  0  0  0  0  0  0  0  0  0
  1  2  1  0
  2  3  2  0
  2  4  1  0
  4  5  1  0
  5  6  2  0
  6  7  1  0
  7  8  2  0
  8  9  1  0
  9 10  1  0
 10 11  1  0
 11 12  1  0
 12 13  2  0
 12 14  1  0
 14 15  1  0
 14 16  1  0
  9 17  2  0
 17 18  1  0
 18 19  1  0
 19 20  2  0
 19 21  1  0
 21 22  1  0
 17  5  1  0
  1 23  1  0
  1 24  1  0
  1 25  1  0
  4 26  1  0
  6 27  1  0
  7 28  1  0
  8 29  1  0
 11 30  1  0
 11 31  1  0
 15 32  1  0
 15 33  1  0
 15 34  1  0
 16 35  1  0
 16 36  1  0
 16 37  1  0
 18 38  1  0
 21 39  1  0
 21 40  1  0
 22 41  1  0
M  END
