LIG
     RDKit          3D

 42 44  0  0  0  0  0  0  0  0999 V2000
   28.5263   16.4929    8.4222 C   0  0  0  0  0  0  0  0  0  0  0  0
   28.7543   15.1210    8.6356 N   0  0  0  0  0  0  0  0  0  0  0  0
   28.1162   14.1696    7.7780 C   0  0  0  0  0  0  0  0  0  0  0  0
   28.5832   12.8784    8.3819 C   0  0  0  0  0  0  0  0  0  0  0  0
   30.0279   13.2030    8.7167 C   0  0  0  0  0  0  0  0  0  0  0  0
   30.7665   13.2085    7.5297 O   0  0  0  0  0  0  0  0  0  0  0  0
   31.3495   12.0390    7.1860 C   0  0  0  0  0  0  0  0  0  0  0  0
   31.1404   10.7565    7.6690 C   0  0  0  0  0  0  0  0  0  0  0  0
   31.8805    9.7094    7.1187 C   0  0  0  0  0  0  0  0  0  0  0  0
   32.8299    9.9694    6.1227 C   0  0  0  0  0  0  0  0  0  0  0  0
   33.5327    8.9421    5.6370 F   0  0  0  0  0  0  0  0  0  0  0  0
   33.0421   11.2642    5.6511 C   0  0  0  0  0  0  0  0  0  0  0  0
   33.9458   11.5942    4.6240 N   0  0  0  0  0  0  0  0  0  0  0  0
   34.3325   12.9027    4.3410 C   0  0  0  0  0  0  0  0  0  0  0  0
   34.1705   13.8765    5.0782 O   0  0  0  0  0  0  0  0  0  0  0  0
   34.9592   13.0910    2.9654 C   0  0  0  0  0  0  0  0  0  0  0  0
   34.2711   14.2496    2.2506 C   0  0  0  0  0  0  0  0  0  0  0  0
   34.4728   13.8954    0.8039 C   0  0  0  0  0  0  0  0  0  0  0  0
   34.3503   12.3897    0.8325 C   0  0  0  0  0  0  0  0  0  0  0  0
   34.8219   11.9475    2.1133 O   0  0  0  0  0  0  0  0  0  0  0  0
   32.2575   12.2677    6.1806 C   0  0  0  0  0  0  0  0  0  0  0  0
   29.9530   14.6458    9.1462 C   0  0  0  0  0  0  0  0  0  0  0  0
   30.7975   15.2922    9.7480 O   0  0  0  0  0  0  0  0  0  0  0  0
   29.2995   17.1180    8.8318 H   0  0  0  0  0  0  0  0  0  0  0  0
   28.5112   16.6764    7.3519 H   0  0  0  0  0  0  0  0  0  0  0  0
   27.5920   16.6958    8.9341 H   0  0  0  0  0  0  0  0  0  0  0  0
   27.0381   14.2980    7.8049 H   0  0  0  0  0  0  0  0  0  0  0  0
   28.4753   14.3012    6.7506 H   0  0  0  0  0  0  0  0  0  0  0  0
   28.0291   12.7006    9.3046 H   0  0  0  0  0  0  0  0  0  0  0  0
   28.4519   12.0500    7.6827 H   0  0  0  0  0  0  0  0  0  0  0  0
   30.5109   12.6293    9.4848 H   0  0  0  0  0  0  0  0  0  0  0  0
   30.4125   10.5328    8.4417 H   0  0  0  0  0  0  0  0  0  0  0  0
   31.7357    8.6875    7.4626 H   0  0  0  0  0  0  0  0  0  0  0  0
   34.3911   10.8480    4.0958 H   0  0  0  0  0  0  0  0  0  0  0  0
   36.0302   13.2818    3.0966 H   0  0  0  0  0  0  0  0  0  0  0  0
   33.1982   14.2776    2.4803 H   0  0  0  0  0  0  0  0  0  0  0  0
   34.6950   15.2218    2.5197 H   0  0  0  0  0  0  0  0  0  0  0  0
   33.7575   14.3710    0.1280 H   0  0  0  0  0  0  0  0  0  0  0  0
   35.4836   14.1814    0.4902 H   0  0  0  0  0  0  0  0  0  0  0  0
   33.3046   12.0769    0.7391 H   0  0  0  0  0  0  0  0  0  0  0  0
   34.9287   11.9058    0.0405 H   0  0  0  0  0  0  0  0  0  0  0  0
   32.3021   13.2872    5.8146 H   0  0  0  0  0  0  0  0  0  0  0  0
  1  2  1  0
  2  3  1  0
  3  4  1  0
  4  5  1  0
  5  6  1  0
  6  7  1  0
  7  8  2  0
  8  9  1  0
  9 10  2  0
 10 11  1  0
 10 12  1  0
 12 13  1  0
 13 14  1  0
 14 15  2  0
 14 16  1  0
 16 17  1  0
 17 18  1  0
 18 19  1  0
 19 20  1  0
 12 21  2  0
  5 22  1  0
 22 23  2  0
 22  2  1  0
 21  7  1  0
 20 16  1  0
  1 24  1  0
  1 25  1  0
  1 26  1  0
  3 27  1  0
  3 28  1  0
  4 29  1  0
  4 30  1  0
  5 31  1  0
  8 32  1  0
  9 33  1  0
 13 34  1  0
 16 35  1  0
 17 36  1  0
 17 37  1  0
 18 38  1  0
 18 39  1  0
 19 40  1  0
 19 41  1  0
 21 42  1  0
M  END
