LIG
     RDKit          3D

 37 38  0  0  0  0  0  0  0  0999 V2000
   30.7370    8.6550    8.4540 C   0  0  0  0  0  0  0  0  0  0  0  0
   31.3020    9.7050    7.8000 C   0  0  0  0  0  0  0  0  0  0  0  0
   32.2980    9.4490    6.8970 C   0  0  0  0  0  0  0  0  0  0  0  0
   32.8360   10.5190    6.2010 N   0  0  0  0  0  0  0  0  0  0  0  0
   32.3710   11.8060    6.4170 C   0  0  0  0  0  0  0  0  0  0  0  0
   33.6520   12.7090    6.6590 N   0  0  0  0  0  0  0  0  0  0  0  0
   34.4250   13.2280    7.6390 C   0  0  0  0  0  0  0  0  0  0  0  0
   34.9120   12.5690    8.5560 O   0  0  0  0  0  0  0  0  0  0  0  0
   34.6680   14.7180    7.5670 C   0  0  0  0  0  0  0  0  0  0  0  0
   35.0470   15.1300    6.2680 S   0  0  0  0  0  0  0  0  0  0  0  0
   31.3600   12.0190    7.3410 C   0  0  0  0  0  0  0  0  0  0  0  0
   30.9510   13.3300    7.5050 O   0  0  0  0  0  0  0  0  0  0  0  0
   30.0580   13.6540    8.5870 C   0  0  0  0  0  0  0  0  0  0  0  0
   28.5940   13.4330    8.1660 C   0  0  0  0  0  0  0  0  0  0  0  0
   27.8900   14.7750    8.3110 C   0  0  0  0  0  0  0  0  0  0  0  0
   28.8690   15.5850    9.0100 N   0  0  0  0  0  0  0  0  0  0  0  0
   28.4820   16.7650    9.7690 C   0  0  0  0  0  0  0  0  0  0  0  0
   30.1260   15.1410    8.9140 C   0  0  0  0  0  0  0  0  0  0  0  0
   31.1310   15.8110    9.0820 O   0  0  0  0  0  0  0  0  0  0  0  0
   30.8090   10.9600    8.0540 C   0  0  0  0  0  0  0  0  0  0  0  0
   29.6613    8.4953    8.1894 H   0  0  0  0  0  0  0  0  0  0  0  0
   30.7542    8.7462    9.5711 H   0  0  0  0  0  0  0  0  0  0  0  0
   31.2396    7.6722    8.2598 H   0  0  0  0  0  0  0  0  0  0  0  0
   32.7002    8.5110    6.6825 H   0  0  0  0  0  0  0  0  0  0  0  0
   33.9291   12.9303    5.6332 H   0  0  0  0  0  0  0  0  0  0  0  0
   33.6863   15.1437    8.0068 H   0  0  0  0  0  0  0  0  0  0  0  0
   35.4001   14.9506    8.4278 H   0  0  0  0  0  0  0  0  0  0  0  0
   34.2124   16.1945    6.0068 H   0  0  0  0  0  0  0  0  0  0  0  0
   29.7702   14.6837    7.0735 H   0  0  0  0  0  0  0  0  0  0  0  0
   28.1176   12.6841    8.8252 H   0  0  0  0  0  0  0  0  0  0  0  0
   28.5119   13.0278    7.1432 H   0  0  0  0  0  0  0  0  0  0  0  0
   26.9718   14.6993    8.8928 H   0  0  0  0  0  0  0  0  0  0  0  0
   27.6916   15.2332    7.3403 H   0  0  0  0  0  0  0  0  0  0  0  0
   29.0764   16.8044   10.6831 H   0  0  0  0  0  0  0  0  0  0  0  0
   27.4212   16.6857   10.0133 H   0  0  0  0  0  0  0  0  0  0  0  0
   28.6511   17.6657    9.1769 H   0  0  0  0  0  0  0  0  0  0  0  0
   30.0327   11.1316    8.7729 H   0  0  0  0  0  0  0  0  0  0  0  0
  1  2  1  0
  2  3  4  0
  3  4  4  0
  4  5  4  0
  5  6  1  0
  6  7  1  0
  7  8  2  0
  7  9  1  0
  9 10  1  0
  5 11  4  0
 11 12  1  0
 12 13  1  0
 13 14  1  0
 14 15  1  0
 15 16  1  0
 16 17  1  0
 16 18  1  0
 18 19  2  0
 11 20  4  0
 20  2  4  0
 18 13  1  0
  1 21  1  0
  1 22  1  0
  1 23  1  0
  3 24  1  0
  6 25  1  0
  9 26  1  0
  9 27  1  0
 10 28  1  0
 13 29  1  0
 14 30  1  0
 14 31  1  0
 15 32  1  0
 15 33  1  0
 17 34  1  0
 17 35  1  0
 17 36  1  0
 20 37  1  0
M  END
$$$$
