LIG
     RDKit          3D

 37 38  0  0  0  0  0  0  0  0999 V2000
   30.1570    8.4110    8.0350 C   0  0  0  0  0  0  0  0  0  0  0  0
   31.0170    9.5590    7.5720 C   0  0  0  0  0  0  0  0  0  0  0  0
   32.1560    9.3390    6.8090 C   0  0  0  0  0  0  0  0  0  0  0  0
   33.0110   10.3720    6.4380 N   0  0  0  0  0  0  0  0  0  0  0  0
   32.7080   11.6650    6.8730 C   0  0  0  0  0  0  0  0  0  0  0  0
   33.6520   12.7090    6.6590 N   0  0  0  0  0  0  0  0  0  0  0  0
   34.4250   13.2280    7.6390 C   0  0  0  0  0  0  0  0  0  0  0  0
   34.9120   12.5690    8.5560 O   0  0  0  0  0  0  0  0  0  0  0  0
   34.6680   14.7180    7.5670 C   0  0  0  0  0  0  0  0  0  0  0  0
   35.0470   15.1300    6.2680 S   0  0  0  0  0  0  0  0  0  0  0  0
   31.5450   11.9340    7.6020 C   0  0  0  0  0  0  0  0  0  0  0  0
   31.1650   13.3330    8.0150 O   0  0  0  0  0  0  0  0  0  0  0  0
   30.0580   13.6540    8.5870 C   0  0  0  0  0  0  0  0  0  0  0  0
   28.5940   13.4330    8.1660 C   0  0  0  0  0  0  0  0  0  0  0  0
   27.8900   14.7750    8.3110 C   0  0  0  0  0  0  0  0  0  0  0  0
   28.8690   15.5850    9.0100 N   0  0  0  0  0  0  0  0  0  0  0  0
   28.4820   16.7650    9.7690 C   0  0  0  0  0  0  0  0  0  0  0  0
   30.1260   15.1410    8.9140 C   0  0  0  0  0  0  0  0  0  0  0  0
   31.1310   15.8110    9.0820 O   0  0  0  0  0  0  0  0  0  0  0  0
   30.7220   10.8640    7.9390 C   0  0  0  0  0  0  0  0  0  0  0  0
   29.2977    8.7819    8.5998 H   0  0  0  0  0  0  0  0  0  0  0  0
   29.8015    7.8449    7.1712 H   0  0  0  0  0  0  0  0  0  0  0  0
   30.7199    7.7421    8.6907 H   0  0  0  0  0  0  0  0  0  0  0  0
   32.4561    8.3757    6.4569 H   0  0  0  0  0  0  0  0  0  0  0  0
   33.7643   12.9948    5.7168 H   0  0  0  0  0  0  0  0  0  0  0  0
   33.7064   15.1514    8.0163 H   0  0  0  0  0  0  0  0  0  0  0  0
   35.4224   14.8940    8.4082 H   0  0  0  0  0  0  0  0  0  0  0  0
   35.2601   16.4864    6.3807 H   0  0  0  0  0  0  0  0  0  0  0  0
   30.1300   13.2535    9.7625 H   0  0  0  0  0  0  0  0  0  0  0  0
   28.5510   13.0897    7.1143 H   0  0  0  0  0  0  0  0  0  0  0  0
   28.0979   12.6442    8.7590 H   0  0  0  0  0  0  0  0  0  0  0  0
   26.9950   14.6987    8.9337 H   0  0  0  0  0  0  0  0  0  0  0  0
   27.6453   15.2208    7.3458 H   0  0  0  0  0  0  0  0  0  0  0  0
   28.9669   16.7585   10.7461 H   0  0  0  0  0  0  0  0  0  0  0  0
   28.7804   17.6545    9.2119 H   0  0  0  0  0  0  0  0  0  0  0  0
   27.3986   16.7507    9.9016 H   0  0  0  0  0  0  0  0  0  0  0  0
   29.7959   11.0302    8.5151 H   0  0  0  0  0  0  0  0  0  0  0  0
  1  2  1  0
  2  3  4  0
  3  4  4  0
  4  5  4  0
  5  6  1  0
  6  7  1  0
  7  8  2  0
  7  9  1  0
  9 10  1  0
  5 11  4  0
 11 12  1  0
 12 13  1  0
 13 14  1  0
 14 15  1  0
 15 16  1  0
 16 17  1  0
 16 18  1  0
 18 19  2  0
 11 20  4  0
 20  2  4  0
 18 13  1  0
  1 21  1  0
  1 22  1  0
  1 23  1  0
  3 24  1  0
  6 25  1  0
  9 26  1  0
  9 27  1  0
 10 28  1  0
 13 29  1  0
 14 30  1  0
 14 31  1  0
 15 32  1  0
 15 33  1  0
 17 34  1  0
 17 35  1  0
 17 36  1  0
 20 37  1  0
M  END
