LIG
     RDKit          3D

 45 47  0  0  0  0  0  0  0  0999 V2000
   33.9146    9.1093    5.5400 C   0  0  0  0  0  0  0  0  0  0  0  0
   32.9842   10.1696    6.0287 C   0  0  0  0  0  0  0  0  0  0  0  0
   32.0143    9.8440    7.0028 C   0  0  0  0  0  0  0  0  0  0  0  0
   31.2034   10.8316    7.5640 C   0  0  0  0  0  0  0  0  0  0  0  0
   31.3393   12.1294    7.1087 C   0  0  0  0  0  0  0  0  0  0  0  0
   30.7096   13.2597    7.4910 O   0  0  0  0  0  0  0  0  0  0  0  0
   30.0182   13.2059    8.7071 C   0  0  0  0  0  0  0  0  0  0  0  0
   28.5693   12.8778    8.4003 C   0  0  0  0  0  0  0  0  0  0  0  0
   28.0905   14.1708    7.8087 C   0  0  0  0  0  0  0  0  0  0  0  0
   28.7377   15.1226    8.6598 N   0  0  0  0  0  0  0  0  0  0  0  0
   28.5231   16.4937    8.4291 C   0  0  0  0  0  0  0  0  0  0  0  0
   29.9418   14.6434    9.1595 C   0  0  0  0  0  0  0  0  0  0  0  0
   30.7867   15.2928    9.7590 O   0  0  0  0  0  0  0  0  0  0  0  0
   32.2173   12.4241    6.0965 C   0  0  0  0  0  0  0  0  0  0  0  0
   33.0723   11.4841    5.5624 C   0  0  0  0  0  0  0  0  0  0  0  0
   33.9490   11.8928    4.5447 N   0  0  0  0  0  0  0  0  0  0  0  0
   34.2668   13.2212    4.2836 C   0  0  0  0  0  0  0  0  0  0  0  0
   34.0179   14.1858    5.0057 O   0  0  0  0  0  0  0  0  0  0  0  0
   34.9273   13.4315    2.9281 C   0  0  0  0  0  0  0  0  0  0  0  0
   34.0918   14.4077    2.1096 C   0  0  0  0  0  0  0  0  0  0  0  0
   34.4079   13.9910    0.7005 C   0  0  0  0  0  0  0  0  0  0  0  0
   34.5264   12.4908    0.8379 C   0  0  0  0  0  0  0  0  0  0  0  0
   35.0266   12.2242    2.1560 O   0  0  0  0  0  0  0  0  0  0  0  0
   34.0174    8.3290    6.2883 H   0  0  0  0  0  0  0  0  0  0  0  0
   34.9191    9.5125    5.3791 H   0  0  0  0  0  0  0  0  0  0  0  0
   33.5702    8.6935    4.5941 H   0  0  0  0  0  0  0  0  0  0  0  0
   31.9170    8.8178    7.3578 H   0  0  0  0  0  0  0  0  0  0  0  0
   30.4904   10.5520    8.3324 H   0  0  0  0  0  0  0  0  0  0  0  0
   30.5284   12.6135    9.4448 H   0  0  0  0  0  0  0  0  0  0  0  0
   28.0320   12.6954    9.3316 H   0  0  0  0  0  0  0  0  0  0  0  0
   28.4307   12.0523    7.6989 H   0  0  0  0  0  0  0  0  0  0  0  0
   27.0139   14.3003    7.8496 H   0  0  0  0  0  0  0  0  0  0  0  0
   28.4328   14.3064    6.7759 H   0  0  0  0  0  0  0  0  0  0  0  0
   28.5107   16.6659    7.3566 H   0  0  0  0  0  0  0  0  0  0  0  0
   27.5904   16.7114    8.9374 H   0  0  0  0  0  0  0  0  0  0  0  0
   29.3012   17.1170    8.8323 H   0  0  0  0  0  0  0  0  0  0  0  0
   32.1930   13.4462    5.7381 H   0  0  0  0  0  0  0  0  0  0  0  0
   34.4487   11.2032    3.9931 H   0  0  0  0  0  0  0  0  0  0  0  0
   35.9443   13.8058    3.0895 H   0  0  0  0  0  0  0  0  0  0  0  0
   34.3424   15.4525    2.3170 H   0  0  0  0  0  0  0  0  0  0  0  0
   33.0199   14.2769    2.3055 H   0  0  0  0  0  0  0  0  0  0  0  0
   35.3722   14.4151    0.3966 H   0  0  0  0  0  0  0  0  0  0  0  0
   33.6544   14.2961   -0.0301 H   0  0  0  0  0  0  0  0  0  0  0  0
   33.5472   12.0075    0.7510 H   0  0  0  0  0  0  0  0  0  0  0  0
   35.1974   12.0519    0.0942 H   0  0  0  0  0  0  0  0  0  0  0  0
  1  2  1  0
  2  3  2  0
  3  4  1  0
  4  5  2  0
  5  6  1  0
  6  7  1  0
  7  8  1  0
  8  9  1  0
  9 10  1  0
 10 11  1  0
 10 12  1  0
 12 13  2  0
  5 14  1  0
 14 15  2  0
 15 16  1  0
 16 17  1  0
 17 18  2  0
 17 19  1  0
 19 20  1  0
 20 21  1  0
 21 22  1  0
 22 23  1  0
 15  2  1  0
 23 19  1  0
 12  7  1  0
  1 24  1  0
  1 25  1  0
  1 26  1  0
  3 27  1  0
  4 28  1  0
  7 29  1  0
  8 30  1  0
  8 31  1  0
  9 32  1  0
  9 33  1  0
 11 34  1  0
 11 35  1  0
 11 36  1  0
 14 37  1  0
 16 38  1  0
 19 39  1  0
 20 40  1  0
 20 41  1  0
 21 42  1  0
 21 43  1  0
 22 44  1  0
 22 45  1  0
M  END
