LIG
     RDKit          3D

 48 49  0  0  0  0  0  0  0  0999 V2000
   33.7822    9.2740    5.7826 C   0  0  0  0  0  0  0  0  0  0  0  0
   32.6398    9.9135    6.5156 C   0  0  0  0  0  0  0  0  0  0  0  0
   31.8553    9.2050    7.4327 C   0  0  0  0  0  0  0  0  0  0  0  0
   30.8250    9.8444    8.1283 C   0  0  0  0  0  0  0  0  0  0  0  0
   30.5480   11.1881    7.8906 C   0  0  0  0  0  0  0  0  0  0  0  0
   29.4931   11.7399    8.5427 O   0  0  0  0  0  0  0  0  0  0  0  0
   29.3632   13.1496    8.6425 C   0  0  0  0  0  0  0  0  0  0  0  0
   30.3708   13.9061    9.5444 C   0  0  0  0  0  0  0  0  0  0  0  0
   31.5853   13.7259    9.4663 O   0  0  0  0  0  0  0  0  0  0  0  0
   29.8728   14.8636   10.4316 N   0  0  0  0  0  0  0  0  0  0  0  0
   30.8606   15.5660   11.2343 C   0  0  0  0  0  0  0  0  0  0  0  0
   28.5760   14.6689   11.0275 C   0  0  0  0  0  0  0  0  0  0  0  0
   31.2804   11.8642    6.9368 C   0  0  0  0  0  0  0  0  0  0  0  0
   32.3149   11.2401    6.2453 C   0  0  0  0  0  0  0  0  0  0  0  0
   33.0312   11.8175    5.2347 O   0  0  0  0  0  0  0  0  0  0  0  0
   32.7861   13.1782    4.9240 C   0  0  0  0  0  0  0  0  0  0  0  0
   33.5055   13.9951    5.9648 C   0  0  0  0  0  0  0  0  0  0  0  0
   33.1322   13.9483    7.1391 O   0  0  0  0  0  0  0  0  0  0  0  0
   34.5943   14.7479    5.6029 N   0  0  0  0  0  0  0  0  0  0  0  0
   35.5647   14.9219    6.6745 C   0  0  0  0  0  0  0  0  0  0  0  0
   36.5856   13.7898    6.5333 C   0  0  0  0  0  0  0  0  0  0  0  0
   37.2884   13.9448    5.2814 O   0  0  0  0  0  0  0  0  0  0  0  0
   36.3681   13.7975    4.1821 C   0  0  0  0  0  0  0  0  0  0  0  0
   35.2248   14.8137    4.2787 C   0  0  0  0  0  0  0  0  0  0  0  0
   34.1537    8.4014    6.3144 H   0  0  0  0  0  0  0  0  0  0  0  0
   33.4666    8.9654    4.7837 H   0  0  0  0  0  0  0  0  0  0  0  0
   34.6249    9.9638    5.6733 H   0  0  0  0  0  0  0  0  0  0  0  0
   32.0409    8.1520    7.6271 H   0  0  0  0  0  0  0  0  0  0  0  0
   30.2322    9.2809    8.8437 H   0  0  0  0  0  0  0  0  0  0  0  0
   28.3446   13.3144    8.9988 H   0  0  0  0  0  0  0  0  0  0  0  0
   29.3635   13.6264    7.6553 H   0  0  0  0  0  0  0  0  0  0  0  0
   31.0887   14.9537   12.0996 H   0  0  0  0  0  0  0  0  0  0  0  0
   30.4798   16.5249   11.5827 H   0  0  0  0  0  0  0  0  0  0  0  0
   31.7791   15.7477   10.6712 H   0  0  0  0  0  0  0  0  0  0  0  0
   28.3675   13.6169   11.2082 H   0  0  0  0  0  0  0  0  0  0  0  0
   27.8196   15.0548   10.3407 H   0  0  0  0  0  0  0  0  0  0  0  0
   28.5309   15.1789   11.9912 H   0  0  0  0  0  0  0  0  0  0  0  0
   31.0286   12.8893    6.7239 H   0  0  0  0  0  0  0  0  0  0  0  0
   33.1675   13.3320    3.9174 H   0  0  0  0  0  0  0  0  0  0  0  0
   31.7254   13.4434    4.8703 H   0  0  0  0  0  0  0  0  0  0  0  0
   36.0357   15.8868    6.5116 H   0  0  0  0  0  0  0  0  0  0  0  0
   35.1120   14.9118    7.6696 H   0  0  0  0  0  0  0  0  0  0  0  0
   37.3167   13.7801    7.3443 H   0  0  0  0  0  0  0  0  0  0  0  0
   36.0955   12.8135    6.5254 H   0  0  0  0  0  0  0  0  0  0  0  0
   35.9848   12.7702    4.1792 H   0  0  0  0  0  0  0  0  0  0  0  0
   36.9294   13.9483    3.2549 H   0  0  0  0  0  0  0  0  0  0  0  0
   34.5017   14.6878    3.4723 H   0  0  0  0  0  0  0  0  0  0  0  0
   35.6517   15.8134    4.1655 H   0  0  0  0  0  0  0  0  0  0  0  0
  1  2  1  0
  2  3  2  0
  3  4  1  0
  4  5  2  0
  5  6  1  0
  6  7  1  0
  7  8  1  0
  8  9  2  0
  8 10  1  0
 10 11  1  0
 10 12  1  0
  5 13  1  0
 13 14  2  0
 14 15  1  0
 15 16  1  0
 16 17  1  0
 17 18  2  0
 17 19  1  0
 19 20  1  0
 20 21  1  0
 21 22  1  0
 22 23  1  0
 23 24  1  0
 14  2  1  0
 24 19  1  0
  1 25  1  0
  1 26  1  0
  1 27  1  0
  3 28  1  0
  4 29  1  0
  7 30  1  0
  7 31  1  0
 11 32  1  0
 11 33  1  0
 11 34  1  0
 12 35  1  0
 12 36  1  0
 12 37  1  0
 13 38  1  0
 16 39  1  0
 16 40  1  0
 20 41  1  0
 20 42  1  0
 21 43  1  0
 21 44  1  0
 23 45  1  0
 23 46  1  0
 24 47  1  0
 24 48  1  0
M  END
