LIG
     RDKit          3D

 48 49  0  0  0  0  0  0  0  0999 V2000
   31.6040    8.1354    8.0659 C   0  0  0  0  0  0  0  0  0  0  0  0
   31.4895    9.5588    7.7085 C   0  0  0  0  0  0  0  0  0  0  0  0
   30.5172   10.3224    8.3403 C   0  0  0  0  0  0  0  0  0  0  0  0
   30.2984   11.6322    7.9597 C   0  0  0  0  0  0  0  0  0  0  0  0
   29.2446   12.2659    8.5424 O   0  0  0  0  0  0  0  0  0  0  0  0
   29.3423   13.6592    8.7362 C   0  0  0  0  0  0  0  0  0  0  0  0
   30.4189   14.1963    9.7030 C   0  0  0  0  0  0  0  0  0  0  0  0
   31.6102   13.9100    9.6064 O   0  0  0  0  0  0  0  0  0  0  0  0
   29.9915   15.1328   10.6555 N   0  0  0  0  0  0  0  0  0  0  0  0
   31.0568   15.8684   11.3157 C   0  0  0  0  0  0  0  0  0  0  0  0
   28.9345   14.6994   11.5372 C   0  0  0  0  0  0  0  0  0  0  0  0
   31.0728   12.1691    6.9474 C   0  0  0  0  0  0  0  0  0  0  0  0
   32.0881   11.4178    6.3483 C   0  0  0  0  0  0  0  0  0  0  0  0
   32.8933   11.8210    5.3262 O   0  0  0  0  0  0  0  0  0  0  0  0
   32.8188   13.1802    4.9358 C   0  0  0  0  0  0  0  0  0  0  0  0
   33.5461   13.9946    5.9776 C   0  0  0  0  0  0  0  0  0  0  0  0
   33.1954   13.9440    7.1592 O   0  0  0  0  0  0  0  0  0  0  0  0
   34.6200   14.7607    5.5988 N   0  0  0  0  0  0  0  0  0  0  0  0
   35.6085   14.9297    6.6521 C   0  0  0  0  0  0  0  0  0  0  0  0
   36.6223   13.7933    6.4899 C   0  0  0  0  0  0  0  0  0  0  0  0
   37.3033   13.9488    5.2263 O   0  0  0  0  0  0  0  0  0  0  0  0
   36.3644   13.8161    4.1406 C   0  0  0  0  0  0  0  0  0  0  0  0
   35.2258   14.8355    4.2637 C   0  0  0  0  0  0  0  0  0  0  0  0
   32.3005   10.1109    6.7316 C   0  0  0  0  0  0  0  0  0  0  0  0
   31.9567    8.0097    9.0862 H   0  0  0  0  0  0  0  0  0  0  0  0
   30.6156    7.6798    7.9887 H   0  0  0  0  0  0  0  0  0  0  0  0
   32.2828    7.6450    7.3763 H   0  0  0  0  0  0  0  0  0  0  0  0
   29.9111    9.8670    9.1138 H   0  0  0  0  0  0  0  0  0  0  0  0
   28.3526   13.9829    9.0656 H   0  0  0  0  0  0  0  0  0  0  0  0
   29.4656   14.1863    7.7825 H   0  0  0  0  0  0  0  0  0  0  0  0
   31.5060   15.2433   12.0783 H   0  0  0  0  0  0  0  0  0  0  0  0
   31.8346   16.1583   10.6072 H   0  0  0  0  0  0  0  0  0  0  0  0
   30.6612   16.7708   11.7853 H   0  0  0  0  0  0  0  0  0  0  0  0
   28.0197   14.4708   10.9920 H   0  0  0  0  0  0  0  0  0  0  0  0
   28.7340   15.4663   12.2845 H   0  0  0  0  0  0  0  0  0  0  0  0
   29.2707   13.8136   12.0691 H   0  0  0  0  0  0  0  0  0  0  0  0
   30.8703   13.1757    6.6186 H   0  0  0  0  0  0  0  0  0  0  0  0
   31.7975   13.5450    4.7868 H   0  0  0  0  0  0  0  0  0  0  0  0
   33.2915   13.2243    3.9571 H   0  0  0  0  0  0  0  0  0  0  0  0
   36.0775   15.8937    6.4799 H   0  0  0  0  0  0  0  0  0  0  0  0
   35.1745   14.9203    7.6555 H   0  0  0  0  0  0  0  0  0  0  0  0
   37.3690   13.7780    7.2864 H   0  0  0  0  0  0  0  0  0  0  0  0
   36.1302   12.8174    6.4903 H   0  0  0  0  0  0  0  0  0  0  0  0
   35.9775   12.7903    4.1354 H   0  0  0  0  0  0  0  0  0  0  0  0
   36.9111   13.9726    3.2057 H   0  0  0  0  0  0  0  0  0  0  0  0
   35.6541   15.8343    4.1485 H   0  0  0  0  0  0  0  0  0  0  0  0
   34.4839   14.7178    3.4723 H   0  0  0  0  0  0  0  0  0  0  0  0
   33.0662    9.5160    6.2407 H   0  0  0  0  0  0  0  0  0  0  0  0
  1  2  1  0
  2  3  2  0
  3  4  1  0
  4  5  1  0
  5  6  1  0
  6  7  1  0
  7  8  2  0
  7  9  1  0
  9 10  1  0
  9 11  1  0
  4 12  2  0
 12 13  1  0
 13 14  1  0
 14 15  1  0
 15 16  1  0
 16 17  2  0
 16 18  1  0
 18 19  1  0
 19 20  1  0
 20 21  1  0
 21 22  1  0
 22 23  1  0
 13 24  2  0
 24  2  1  0
 23 18  1  0
  1 25  1  0
  1 26  1  0
  1 27  1  0
  3 28  1  0
  6 29  1  0
  6 30  1  0
 10 31  1  0
 10 32  1  0
 10 33  1  0
 11 34  1  0
 11 35  1  0
 11 36  1  0
 12 37  1  0
 15 38  1  0
 15 39  1  0
 19 40  1  0
 19 41  1  0
 20 42  1  0
 20 43  1  0
 22 44  1  0
 22 45  1  0
 23 46  1  0
 23 47  1  0
 24 48  1  0
M  END
