LIG
     RDKit          3D

 31 31  0  0  0  0  0  0  0  0999 V2000
   32.5660    9.4008    6.5105 C   0  0  0  0  0  0  0  0  0  0  0  0
   33.0353   10.6453    6.1227 C   0  0  0  0  0  0  0  0  0  0  0  0
   32.5239   11.7768    6.7500 C   0  0  0  0  0  0  0  0  0  0  0  0
   33.2278   12.9829    6.5883 N   0  0  0  0  0  0  0  0  0  0  0  0
   33.9379   13.4668    7.6914 C   0  0  0  0  0  0  0  0  0  0  0  0
   33.7954   13.0897    8.8559 O   0  0  0  0  0  0  0  0  0  0  0  0
   34.9837   14.5143    7.3034 C   0  0  0  0  0  0  0  0  0  0  0  0
   34.9369   14.8836    5.9300 O   0  0  0  0  0  0  0  0  0  0  0  0
   31.4611   11.6558    7.6577 C   0  0  0  0  0  0  0  0  0  0  0  0
   30.6784   12.7264    8.1199 N   0  0  0  0  0  0  0  0  0  0  0  0
   29.7057   13.1279    7.2104 C   0  0  0  0  0  0  0  0  0  0  0  0
   29.8271   13.1222    5.9869 O   0  0  0  0  0  0  0  0  0  0  0  0
   28.4176   13.5379    7.8532 C   0  0  0  0  0  0  0  0  0  0  0  0
   28.4574   14.9619    8.0901 C   0  0  0  0  0  0  0  0  0  0  0  0
   28.4865   16.0908    8.3365 N   0  0  0  0  0  0  0  0  0  0  0  0
   31.0115   10.4208    8.0570 C   0  0  0  0  0  0  0  0  0  0  0  0
   31.5771    9.3006    7.5019 C   0  0  0  0  0  0  0  0  0  0  0  0
   31.1447    8.0216    8.0842 C   0  0  0  0  0  0  0  0  0  0  0  0
   33.0242    8.5086    6.0966 H   0  0  0  0  0  0  0  0  0  0  0  0
   33.8655   10.7129    5.4265 H   0  0  0  0  0  0  0  0  0  0  0  0
   33.7845   13.0956    5.7436 H   0  0  0  0  0  0  0  0  0  0  0  0
   34.7930   15.3915    7.9186 H   0  0  0  0  0  0  0  0  0  0  0  0
   35.9770   14.1145    7.5219 H   0  0  0  0  0  0  0  0  0  0  0  0
   35.0832   15.8560    5.8837 H   0  0  0  0  0  0  0  0  0  0  0  0
   30.3071   12.5598    9.0555 H   0  0  0  0  0  0  0  0  0  0  0  0
   28.2575   12.9901    8.7856 H   0  0  0  0  0  0  0  0  0  0  0  0
   27.5957   13.2672    7.1819 H   0  0  0  0  0  0  0  0  0  0  0  0
   30.2149   10.3134    8.7867 H   0  0  0  0  0  0  0  0  0  0  0  0
   31.6362    7.8847    9.0493 H   0  0  0  0  0  0  0  0  0  0  0  0
   30.0607    7.9792    8.2316 H   0  0  0  0  0  0  0  0  0  0  0  0
   31.4352    7.2539    7.3890 H   0  0  0  0  0  0  0  0  0  0  0  0
  1  2  2  0
  2  3  1  0
  3  4  1  0
  4  5  1  0
  5  6  2  0
  5  7  1  0
  7  8  1  0
  3  9  2  0
  9 10  1  0
 10 11  1  0
 11 12  2  0
 11 13  1  0
 13 14  1  0
 14 15  3  0
  9 16  1  0
 16 17  2  0
 17 18  1  0
 17  1  1  0
  1 19  1  0
  2 20  1  0
  4 21  1  0
  7 22  1  0
  7 23  1  0
  8 24  1  0
 10 25  1  0
 13 26  1  0
 13 27  1  0
 16 28  1  0
 18 29  1  0
 18 30  1  0
 18 31  1  0
M  END
