LIG
     RDKit          3D

 40 41  0  0  0  0  0  0  0  0999 V2000
    6.8063   -1.3657    0.3029 C   0  0  0  0  0  0  0  0  0  0  0  0
    5.6912   -0.4101    0.6482 C   0  0  0  0  0  0  0  0  0  0  0  0
    5.8436    0.4397    1.5172 O   0  0  0  0  0  0  0  0  0  0  0  0
    4.5356   -0.6706   -0.0641 N   0  0  0  0  0  0  0  0  0  0  0  0
    3.3155    0.0460   -0.0180 C   0  0  0  0  0  0  0  0  0  0  0  0
    2.1672   -0.7158   -0.2643 C   0  0  0  0  0  0  0  0  0  0  0  0
    0.9256   -0.1079   -0.2047 C   0  0  0  0  0  0  0  0  0  0  0  0
   -0.1630   -0.9218   -0.4337 O   0  0  0  0  0  0  0  0  0  0  0  0
   -1.4027   -0.2285   -0.3437 C   0  0  0  0  0  0  0  0  0  0  0  0
   -2.5745   -1.1779   -0.6175 C   0  0  0  0  0  0  0  0  0  0  0  0
   -2.4020   -2.3343   -1.0077 O   0  0  0  0  0  0  0  0  0  0  0  0
   -3.8505   -0.6684   -0.4029 N   0  0  0  0  0  0  0  0  0  0  0  0
   -5.0137   -1.5402   -0.5788 C   0  0  0  0  0  0  0  0  0  0  0  0
   -6.1422   -1.1431    0.3774 C   0  0  0  0  0  0  0  0  0  0  0  0
   -6.5734    0.2191    0.2378 O   0  0  0  0  0  0  0  0  0  0  0  0
   -5.5848    1.0936   -0.3202 C   0  0  0  0  0  0  0  0  0  0  0  0
   -4.1486    0.6978    0.0375 C   0  0  0  0  0  0  0  0  0  0  0  0
    0.7447    1.1958    0.0650 N   0  0  0  0  0  0  0  0  0  0  0  0
    1.8674    1.9223    0.2572 C   0  0  0  0  0  0  0  0  0  0  0  0
    3.1721    1.4226    0.1994 C   0  0  0  0  0  0  0  0  0  0  0  0
    4.2905    2.4113    0.3319 C   0  0  0  0  0  0  0  0  0  0  0  0
    7.7650   -0.8457    0.3857 H   0  0  0  0  0  0  0  0  0  0  0  0
    6.7848   -2.2103    0.9965 H   0  0  0  0  0  0  0  0  0  0  0  0
    6.7093   -1.7345   -0.7225 H   0  0  0  0  0  0  0  0  0  0  0  0
    4.4739   -1.6102   -0.4391 H   0  0  0  0  0  0  0  0  0  0  0  0
    2.2167   -1.7796   -0.4692 H   0  0  0  0  0  0  0  0  0  0  0  0
   -1.5277    0.1781    0.6671 H   0  0  0  0  0  0  0  0  0  0  0  0
   -1.4424    0.5632   -1.1017 H   0  0  0  0  0  0  0  0  0  0  0  0
   -5.3391   -1.4209   -1.6188 H   0  0  0  0  0  0  0  0  0  0  0  0
   -4.7368   -2.5879   -0.4251 H   0  0  0  0  0  0  0  0  0  0  0  0
   -5.8196   -1.2770    1.4165 H   0  0  0  0  0  0  0  0  0  0  0  0
   -7.0160   -1.7833    0.2207 H   0  0  0  0  0  0  0  0  0  0  0  0
   -5.7988    2.1055    0.0380 H   0  0  0  0  0  0  0  0  0  0  0  0
   -5.7194    1.0963   -1.4082 H   0  0  0  0  0  0  0  0  0  0  0  0
   -4.0133    0.7114    1.1250 H   0  0  0  0  0  0  0  0  0  0  0  0
   -3.4411    1.4014   -0.4092 H   0  0  0  0  0  0  0  0  0  0  0  0
    1.6854    2.9781    0.4480 H   0  0  0  0  0  0  0  0  0  0  0  0
    5.1567    2.1229   -0.2705 H   0  0  0  0  0  0  0  0  0  0  0  0
    3.9832    3.3940   -0.0456 H   0  0  0  0  0  0  0  0  0  0  0  0
    4.5747    2.5346    1.3806 H   0  0  0  0  0  0  0  0  0  0  0  0
  1  2  1  0
  2  3  2  0
  2  4  1  0
  4  5  1  0
  5  6  2  0
  6  7  1  0
  7  8  1  0
  8  9  1  0
  9 10  1  0
 10 11  2  0
 10 12  1  0
 12 13  1  0
 13 14  1  0
 14 15  1  0
 15 16  1  0
 16 17  1  0
  7 18  2  0
 18 19  1  0
 19 20  2  0
 20 21  1  0
 20  5  1  0
 17 12  1  0
  1 22  1  0
  1 23  1  0
  1 24  1  0
  4 25  1  0
  6 26  1  0
  9 27  1  0
  9 28  1  0
 13 29  1  0
 13 30  1  0
 14 31  1  0
 14 32  1  0
 16 33  1  0
 16 34  1  0
 17 35  1  0
 17 36  1  0
 19 37  1  0
 21 38  1  0
 21 39  1  0
 21 40  1  0
M  END
