LIG
     RDKit          3D

 34 34  0  0  0  0  0  0  0  0999 V2000
   31.1437   15.7605    4.3297 C   0  0  0  0  0  0  0  0  0  0  0  0
   32.5816   15.8096    4.5374 N   0  0  0  0  0  0  0  0  0  0  0  0
   33.3679   14.8243    3.8113 C   0  0  0  0  0  0  0  0  0  0  0  0
   33.0629   16.5227    5.6321 C   0  0  0  0  0  0  0  0  0  0  0  0
   32.3337   17.2172    6.3437 O   0  0  0  0  0  0  0  0  0  0  0  0
   34.5667   16.4358    5.9447 C   0  0  0  0  0  0  0  0  0  0  0  0
   35.0470   15.1300    6.2680 O   0  0  0  0  0  0  0  0  0  0  0  0
   34.6680   14.7180    7.5670 C   0  0  0  0  0  0  0  0  0  0  0  0
   34.4250   13.2280    7.6390 C   0  0  0  0  0  0  0  0  0  0  0  0
   34.9120   12.5690    8.5560 O   0  0  0  0  0  0  0  0  0  0  0  0
   33.6520   12.7090    6.6590 N   0  0  0  0  0  0  0  0  0  0  0  0
   32.7080   11.6650    6.8730 C   0  0  0  0  0  0  0  0  0  0  0  0
   33.0110   10.3720    6.4380 C   0  0  0  0  0  0  0  0  0  0  0  0
   32.1560    9.3390    6.8090 C   0  0  0  0  0  0  0  0  0  0  0  0
   31.0170    9.5590    7.5720 C   0  0  0  0  0  0  0  0  0  0  0  0
   30.7220   10.8640    7.9390 C   0  0  0  0  0  0  0  0  0  0  0  0
   29.4280   11.6110    9.1450 O   0  0  0  0  0  0  0  0  0  0  0  0
   31.5450   11.9340    7.6020 C   0  0  0  0  0  0  0  0  0  0  0  0
   30.6354   16.6054    4.8019 H   0  0  0  0  0  0  0  0  0  0  0  0
   30.9339   15.7836    3.2564 H   0  0  0  0  0  0  0  0  0  0  0  0
   30.7604   14.8304    4.7599 H   0  0  0  0  0  0  0  0  0  0  0  0
   33.2837   13.8625    4.3254 H   0  0  0  0  0  0  0  0  0  0  0  0
   34.4186   15.1127    3.7504 H   0  0  0  0  0  0  0  0  0  0  0  0
   32.9826   14.7304    2.7916 H   0  0  0  0  0  0  0  0  0  0  0  0
   34.8014   17.1315    6.7597 H   0  0  0  0  0  0  0  0  0  0  0  0
   35.1139   16.7980    5.0675 H   0  0  0  0  0  0  0  0  0  0  0  0
   35.4067   15.0122    8.3184 H   0  0  0  0  0  0  0  0  0  0  0  0
   33.7206   15.2121    7.8024 H   0  0  0  0  0  0  0  0  0  0  0  0
   33.7574   13.0662    5.7482 H   0  0  0  0  0  0  0  0  0  0  0  0
   33.8668   10.1493    5.8353 H   0  0  0  0  0  0  0  0  0  0  0  0
   32.3912    8.3109    6.4856 H   0  0  0  0  0  0  0  0  0  0  0  0
   30.3806    8.7435    7.8711 H   0  0  0  0  0  0  0  0  0  0  0  0
   29.1877   10.7827    9.4609 H   0  0  0  0  0  0  0  0  0  0  0  0
   31.2933   12.9344    7.8946 H   0  0  0  0  0  0  0  0  0  0  0  0
  1  2  1  0
  2  3  1  0
  2  4  1  0
  4  5  2  0
  4  6  1  0
  6  7  1  0
  7  8  1  0
  8  9  1  0
  9 10  2  0
  9 11  1  0
 11 12  1  0
 12 13  4  0
 13 14  4  0
 14 15  4  0
 15 16  4  0
 16 17  1  0
 16 18  4  0
 18 12  4  0
  1 19  1  0
  1 20  1  0
  1 21  1  0
  3 22  1  0
  3 23  1  0
  3 24  1  0
  6 25  1  0
  6 26  1  0
  8 27  1  0
  8 28  1  0
 11 29  1  0
 13 30  1  0
 14 31  1  0
 15 32  1  0
 17 33  1  0
 18 34  1  0
M  END
