LIG
     RDKit          3D

 47 48  0  0  0  0  0  0  0  0999 V2000
   30.0147   13.4255    5.0961 C   0  0  0  0  0  0  0  0  0  0  0  0
   30.8540   12.4687    5.8767 C   0  0  0  0  0  0  0  0  0  0  0  0
   30.1497   11.5880    6.7404 C   0  0  0  0  0  0  0  0  0  0  0  0
   30.8642   10.7647    7.5739 C   0  0  0  0  0  0  0  0  0  0  0  0
   30.4392    9.5383    8.3064 C   0  0  0  0  0  0  0  0  0  0  0  0
   32.0524   11.3457    7.8565 C   0  0  0  0  0  0  0  0  0  0  0  0
   32.0335   12.4991    8.6862 O   0  0  0  0  0  0  0  0  0  0  0  0
   30.7840   13.2112    8.8411 C   0  0  0  0  0  0  0  0  0  0  0  0
   30.8782   14.1439   10.0070 C   0  0  0  0  0  0  0  0  0  0  0  0
   31.9639   14.4313   10.5073 O   0  0  0  0  0  0  0  0  0  0  0  0
   29.6965   14.6584   10.5062 N   0  0  0  0  0  0  0  0  0  0  0  0
   29.8207   15.3187   11.7738 C   0  0  0  0  0  0  0  0  0  0  0  0
   28.4667   14.7609    9.7494 C   0  0  0  0  0  0  0  0  0  0  0  0
   32.8680   11.5847    6.7804 C   0  0  0  0  0  0  0  0  0  0  0  0
   32.2523   12.2897    5.7734 C   0  0  0  0  0  0  0  0  0  0  0  0
   33.1285   12.7417    4.7836 N   0  0  0  0  0  0  0  0  0  0  0  0
   33.0458   13.9135    4.0916 C   0  0  0  0  0  0  0  0  0  0  0  0
   32.1900   14.7723    4.2743 O   0  0  0  0  0  0  0  0  0  0  0  0
   34.1834   14.1075    3.0893 C   0  0  0  0  0  0  0  0  0  0  0  0
   33.6647   14.7764    1.8273 C   0  0  0  0  0  0  0  0  0  0  0  0
   34.5719   14.2132    0.7678 C   0  0  0  0  0  0  0  0  0  0  0  0
   34.7905   12.8018    1.2596 C   0  0  0  0  0  0  0  0  0  0  0  0
   34.7862   12.8632    2.6926 O   0  0  0  0  0  0  0  0  0  0  0  0
   28.9504   13.1768    5.1686 H   0  0  0  0  0  0  0  0  0  0  0  0
   30.2498   13.4225    4.0288 H   0  0  0  0  0  0  0  0  0  0  0  0
   30.0871   14.4326    5.4882 H   0  0  0  0  0  0  0  0  0  0  0  0
   29.0642   11.5950    6.7710 H   0  0  0  0  0  0  0  0  0  0  0  0
   31.2272    8.7787    8.2550 H   0  0  0  0  0  0  0  0  0  0  0  0
   30.2426    9.7604    9.3552 H   0  0  0  0  0  0  0  0  0  0  0  0
   29.5430    9.0915    7.8751 H   0  0  0  0  0  0  0  0  0  0  0  0
   30.6189   13.8615    7.9792 H   0  0  0  0  0  0  0  0  0  0  0  0
   29.9483   12.5370    9.0139 H   0  0  0  0  0  0  0  0  0  0  0  0
   28.8469   15.4380   12.2472 H   0  0  0  0  0  0  0  0  0  0  0  0
   30.4115   14.6770   12.4216 H   0  0  0  0  0  0  0  0  0  0  0  0
   30.3506   16.2674   11.6602 H   0  0  0  0  0  0  0  0  0  0  0  0
   27.6200   14.7794   10.4343 H   0  0  0  0  0  0  0  0  0  0  0  0
   28.3373   13.9153    9.0715 H   0  0  0  0  0  0  0  0  0  0  0  0
   28.4927   15.6682    9.1413 H   0  0  0  0  0  0  0  0  0  0  0  0
   33.9417   11.6675    6.9001 H   0  0  0  0  0  0  0  0  0  0  0  0
   34.0490   12.3074    4.7360 H   0  0  0  0  0  0  0  0  0  0  0  0
   34.9615   14.7122    3.5690 H   0  0  0  0  0  0  0  0  0  0  0  0
   32.6273   14.4868    1.6175 H   0  0  0  0  0  0  0  0  0  0  0  0
   33.6975   15.8686    1.8866 H   0  0  0  0  0  0  0  0  0  0  0  0
   34.1516   14.2554   -0.2402 H   0  0  0  0  0  0  0  0  0  0  0  0
   35.5224   14.7597    0.7675 H   0  0  0  0  0  0  0  0  0  0  0  0
   33.9723   12.1422    0.9505 H   0  0  0  0  0  0  0  0  0  0  0  0
   35.7349   12.3745    0.9117 H   0  0  0  0  0  0  0  0  0  0  0  0
  1  2  1  0
  2  3  2  0
  3  4  1  0
  4  5  1  0
  4  6  2  0
  6  7  1  0
  7  8  1  0
  8  9  1  0
  9 10  2  0
  9 11  1  0
 11 12  1  0
 11 13  1  0
  6 14  1  0
 14 15  2  0
 15 16  1  0
 16 17  1  0
 17 18  2  0
 17 19  1  0
 19 20  1  0
 20 21  1  0
 21 22  1  0
 22 23  1  0
 15  2  1  0
 23 19  1  0
  1 24  1  0
  1 25  1  0
  1 26  1  0
  3 27  1  0
  5 28  1  0
  5 29  1  0
  5 30  1  0
  8 31  1  0
  8 32  1  0
 12 33  1  0
 12 34  1  0
 12 35  1  0
 13 36  1  0
 13 37  1  0
 13 38  1  0
 14 39  1  0
 16 40  1  0
 19 41  1  0
 20 42  1  0
 20 43  1  0
 21 44  1  0
 21 45  1  0
 22 46  1  0
 22 47  1  0
M  END
