LIG
     RDKit          3D

 41 42  0  0  0  0  0  0  0  0999 V2000
    4.3661   -0.3281    2.0968 C   0  0  0  0  0  0  0  0  0  0  0  0
    3.1355   -0.2717    1.2395 C   0  0  0  0  0  0  0  0  0  0  0  0
    1.8931   -0.1122    1.8522 C   0  0  0  0  0  0  0  0  0  0  0  0
    0.7178   -0.0433    1.1954 N   0  0  0  0  0  0  0  0  0  0  0  0
    0.7783   -0.1352   -0.1474 C   0  0  0  0  0  0  0  0  0  0  0  0
   -0.3837   -0.0815   -0.8885 O   0  0  0  0  0  0  0  0  0  0  0  0
   -1.5442    0.1144   -0.0893 C   0  0  0  0  0  0  0  0  0  0  0  0
   -2.8099    0.1699   -0.9531 C   0  0  0  0  0  0  0  0  0  0  0  0
   -2.7670    0.0675   -2.1806 O   0  0  0  0  0  0  0  0  0  0  0  0
   -4.0244    0.3199   -0.2773 N   0  0  0  0  0  0  0  0  0  0  0  0
   -4.1253    0.7822    1.1115 C   0  0  0  0  0  0  0  0  0  0  0  0
   -5.4566    0.3747    1.7508 C   0  0  0  0  0  0  0  0  0  0  0  0
   -6.5681    0.7861    0.9451 O   0  0  0  0  0  0  0  0  0  0  0  0
   -6.5010    0.1639   -0.3468 C   0  0  0  0  0  0  0  0  0  0  0  0
   -5.2222    0.5625   -1.0863 C   0  0  0  0  0  0  0  0  0  0  0  0
    1.9563   -0.2928   -0.8602 C   0  0  0  0  0  0  0  0  0  0  0  0
    3.1631   -0.3618   -0.1644 C   0  0  0  0  0  0  0  0  0  0  0  0
    4.4149   -0.5287   -0.8117 N   0  0  0  0  0  0  0  0  0  0  0  0
    4.6666   -0.5431   -2.1774 C   0  0  0  0  0  0  0  0  0  0  0  0
    3.8322   -0.4105   -3.0680 O   0  0  0  0  0  0  0  0  0  0  0  0
    6.1144   -0.8066   -2.5339 C   0  0  0  0  0  0  0  0  0  0  0  0
    6.9909    0.2225   -1.9793 C   0  0  0  0  0  0  0  0  0  0  0  0
    7.6880    1.0086   -1.4869 N   0  0  0  0  0  0  0  0  0  0  0  0
    4.1220   -0.2406    3.1611 H   0  0  0  0  0  0  0  0  0  0  0  0
    4.8835   -1.2829    1.9580 H   0  0  0  0  0  0  0  0  0  0  0  0
    5.0421    0.4963    1.8471 H   0  0  0  0  0  0  0  0  0  0  0  0
    1.8047   -0.0316    2.9332 H   0  0  0  0  0  0  0  0  0  0  0  0
   -1.4664    1.0701    0.4431 H   0  0  0  0  0  0  0  0  0  0  0  0
   -1.6616   -0.7256    0.6064 H   0  0  0  0  0  0  0  0  0  0  0  0
   -4.0437    1.8752    1.0797 H   0  0  0  0  0  0  0  0  0  0  0  0
   -3.2990    0.3984    1.7142 H   0  0  0  0  0  0  0  0  0  0  0  0
   -5.5598    0.8484    2.7321 H   0  0  0  0  0  0  0  0  0  0  0  0
   -5.5048   -0.7110    1.8973 H   0  0  0  0  0  0  0  0  0  0  0  0
   -7.3785    0.4824   -0.9179 H   0  0  0  0  0  0  0  0  0  0  0  0
   -6.5600   -0.9239   -0.2215 H   0  0  0  0  0  0  0  0  0  0  0  0
   -5.2368    1.6377   -1.3031 H   0  0  0  0  0  0  0  0  0  0  0  0
   -5.1606    0.0262   -2.0389 H   0  0  0  0  0  0  0  0  0  0  0  0
    1.8898   -0.3619   -1.9387 H   0  0  0  0  0  0  0  0  0  0  0  0
    5.2194   -0.5832   -0.1990 H   0  0  0  0  0  0  0  0  0  0  0  0
    6.3881   -1.7990   -2.1600 H   0  0  0  0  0  0  0  0  0  0  0  0
    6.2070   -0.8317   -3.6251 H   0  0  0  0  0  0  0  0  0  0  0  0
  1  2  1  0
  2  3  2  0
  3  4  1  0
  4  5  2  0
  5  6  1  0
  6  7  1  0
  7  8  1  0
  8  9  2  0
  8 10  1  0
 10 11  1  0
 11 12  1  0
 12 13  1  0
 13 14  1  0
 14 15  1  0
  5 16  1  0
 16 17  2  0
 17 18  1  0
 18 19  1  0
 19 20  2  0
 19 21  1  0
 21 22  1  0
 22 23  3  0
 17  2  1  0
 15 10  1  0
  1 24  1  0
  1 25  1  0
  1 26  1  0
  3 27  1  0
  7 28  1  0
  7 29  1  0
 11 30  1  0
 11 31  1  0
 12 32  1  0
 12 33  1  0
 14 34  1  0
 14 35  1  0
 15 36  1  0
 15 37  1  0
 16 38  1  0
 18 39  1  0
 21 40  1  0
 21 41  1  0
M  END
