LIG
     RDKit          3D

 40 41  0  0  0  0  0  0  0  0999 V2000
   30.8075    8.2998    8.0871 C   0  0  0  0  0  0  0  0  0  0  0  0
   31.4469    9.4968    7.4757 C   0  0  0  0  0  0  0  0  0  0  0  0
   31.1204   10.7164    8.0024 C   0  0  0  0  0  0  0  0  0  0  0  0
   31.8342   11.8241    7.5848 C   0  0  0  0  0  0  0  0  0  0  0  0
   31.5408   13.0979    7.9977 O   0  0  0  0  0  0  0  0  0  0  0  0
   30.1864   13.2821    8.2629 C   0  0  0  0  0  0  0  0  0  0  0  0
   29.3236   13.1862    7.0061 C   0  0  0  0  0  0  0  0  0  0  0  0
   28.0663   13.8473    7.4665 C   0  0  0  0  0  0  0  0  0  0  0  0
   28.5574   14.9049    8.2986 N   0  0  0  0  0  0  0  0  0  0  0  0
   27.6780   15.7447    9.0108 C   0  0  0  0  0  0  0  0  0  0  0  0
   29.8241   14.6375    8.8161 C   0  0  0  0  0  0  0  0  0  0  0  0
   30.4481   15.3159    9.6170 O   0  0  0  0  0  0  0  0  0  0  0  0
   32.9092   11.6715    6.7116 C   0  0  0  0  0  0  0  0  0  0  0  0
   33.7904   12.7502    6.5017 N   0  0  0  0  0  0  0  0  0  0  0  0
   34.3390   13.4272    7.5961 C   0  0  0  0  0  0  0  0  0  0  0  0
   34.1156   13.1554    8.7792 O   0  0  0  0  0  0  0  0  0  0  0  0
   35.2520   14.5754    7.2227 C   0  0  0  0  0  0  0  0  0  0  0  0
   36.0617   14.3186    5.6184 S   0  0  0  0  0  0  0  0  0  0  0  0
   33.0902   10.4255    6.1168 C   0  0  0  0  0  0  0  0  0  0  0  0
   34.1382   10.1759    5.0766 C   0  0  0  0  0  0  0  0  0  0  0  0
   32.3587    9.3454    6.4898 N   0  0  0  0  0  0  0  0  0  0  0  0
   31.1628    7.4323    7.5482 H   0  0  0  0  0  0  0  0  0  0  0  0
   29.7174    8.3568    8.0354 H   0  0  0  0  0  0  0  0  0  0  0  0
   31.1028    8.2032    9.1356 H   0  0  0  0  0  0  0  0  0  0  0  0
   30.3609   10.7457    8.7704 H   0  0  0  0  0  0  0  0  0  0  0  0
   29.8186   12.6087    9.0339 H   0  0  0  0  0  0  0  0  0  0  0  0
   29.7864   13.7323    6.1745 H   0  0  0  0  0  0  0  0  0  0  0  0
   29.1456   12.1638    6.6654 H   0  0  0  0  0  0  0  0  0  0  0  0
   27.4762   13.1606    8.0748 H   0  0  0  0  0  0  0  0  0  0  0  0
   27.4750   14.2284    6.6367 H   0  0  0  0  0  0  0  0  0  0  0  0
   28.0391   16.7584    8.8716 H   0  0  0  0  0  0  0  0  0  0  0  0
   27.6741   15.4252   10.0524 H   0  0  0  0  0  0  0  0  0  0  0  0
   26.6771   15.6400    8.6095 H   0  0  0  0  0  0  0  0  0  0  0  0
   34.4291   12.7080    5.7137 H   0  0  0  0  0  0  0  0  0  0  0  0
   36.0176   14.6643    7.9967 H   0  0  0  0  0  0  0  0  0  0  0  0
   34.6725   15.4944    7.1823 H   0  0  0  0  0  0  0  0  0  0  0  0
   36.9064   13.3659    6.0441 H   0  0  0  0  0  0  0  0  0  0  0  0
   34.1896    9.1122    4.8219 H   0  0  0  0  0  0  0  0  0  0  0  0
   33.8948   10.7295    4.1643 H   0  0  0  0  0  0  0  0  0  0  0  0
   35.1267   10.4843    5.4252 H   0  0  0  0  0  0  0  0  0  0  0  0
  1  2  1  0
  2  3  2  0
  3  4  1  0
  4  5  1  0
  5  6  1  0
  6  7  1  0
  7  8  1  0
  8  9  1  0
  9 10  1  0
  9 11  1  0
 11 12  2  0
  4 13  2  0
 13 14  1  0
 14 15  1  0
 15 16  2  0
 15 17  1  0
 17 18  1  0
 13 19  1  0
 19 20  1  0
 19 21  2  0
 21  2  1  0
 11  6  1  0
  1 22  1  0
  1 23  1  0
  1 24  1  0
  3 25  1  0
  6 26  1  0
  7 27  1  0
  7 28  1  0
  8 29  1  0
  8 30  1  0
 10 31  1  0
 10 32  1  0
 10 33  1  0
 14 34  1  0
 17 35  1  0
 17 36  1  0
 18 37  1  0
 20 38  1  0
 20 39  1  0
 20 40  1  0
M  END
