LIG
     RDKit          3D

 44 45  0  0  0  0  0  0  0  0999 V2000
   31.2579    8.6061    8.0716 C   0  0  0  0  0  0  0  0  0  0  0  0
   31.4189    9.9782    7.5228 C   0  0  0  0  0  0  0  0  0  0  0  0
   32.4085   10.3216    6.5822 C   0  0  0  0  0  0  0  0  0  0  0  0
   32.4460   11.6059    6.0476 C   0  0  0  0  0  0  0  0  0  0  0  0
   33.4152   11.9573    5.0858 N   0  0  0  0  0  0  0  0  0  0  0  0
   33.6548   13.2506    4.6460 C   0  0  0  0  0  0  0  0  0  0  0  0
   33.1860   14.2724    5.1464 O   0  0  0  0  0  0  0  0  0  0  0  0
   34.5875   13.3416    3.4368 C   0  0  0  0  0  0  0  0  0  0  0  0
   34.0839   14.4099    2.4719 C   0  0  0  0  0  0  0  0  0  0  0  0
   34.6039   13.9214    1.1483 C   0  0  0  0  0  0  0  0  0  0  0  0
   34.4779   12.4237    1.2988 C   0  0  0  0  0  0  0  0  0  0  0  0
   34.6787   12.1210    2.6880 O   0  0  0  0  0  0  0  0  0  0  0  0
   31.4373   12.4910    6.4169 C   0  0  0  0  0  0  0  0  0  0  0  0
   30.4690   12.1584    7.3556 C   0  0  0  0  0  0  0  0  0  0  0  0
   29.4369   13.0292    7.5134 O   0  0  0  0  0  0  0  0  0  0  0  0
   29.2174   13.5223    8.8161 C   0  0  0  0  0  0  0  0  0  0  0  0
   30.3808   14.1456    9.6244 C   0  0  0  0  0  0  0  0  0  0  0  0
   31.5692   13.9329    9.3917 O   0  0  0  0  0  0  0  0  0  0  0  0
   30.0027   15.0514   10.6264 N   0  0  0  0  0  0  0  0  0  0  0  0
   31.0695   15.7876   11.2771 C   0  0  0  0  0  0  0  0  0  0  0  0
   28.8783   14.7095   11.4610 C   0  0  0  0  0  0  0  0  0  0  0  0
   30.4862   10.9179    7.9414 C   0  0  0  0  0  0  0  0  0  0  0  0
   31.9358    7.9127    7.5712 H   0  0  0  0  0  0  0  0  0  0  0  0
   31.4533    8.5726    9.1417 H   0  0  0  0  0  0  0  0  0  0  0  0
   30.2349    8.2515    7.9221 H   0  0  0  0  0  0  0  0  0  0  0  0
   33.1323    9.5737    6.2668 H   0  0  0  0  0  0  0  0  0  0  0  0
   34.0321   11.2377    4.7210 H   0  0  0  0  0  0  0  0  0  0  0  0
   35.5930   13.5817    3.8007 H   0  0  0  0  0  0  0  0  0  0  0  0
   32.9871   14.4403    2.4492 H   0  0  0  0  0  0  0  0  0  0  0  0
   34.4387   15.4119    2.7315 H   0  0  0  0  0  0  0  0  0  0  0  0
   35.6594   14.1981    1.0411 H   0  0  0  0  0  0  0  0  0  0  0  0
   34.0577   14.3135    0.2866 H   0  0  0  0  0  0  0  0  0  0  0  0
   33.4733   12.0819    1.0270 H   0  0  0  0  0  0  0  0  0  0  0  0
   35.2068   11.8765    0.6945 H   0  0  0  0  0  0  0  0  0  0  0  0
   31.3366   13.4637    5.9528 H   0  0  0  0  0  0  0  0  0  0  0  0
   28.4992   14.3399    8.6678 H   0  0  0  0  0  0  0  0  0  0  0  0
   28.6754   12.7784    9.3931 H   0  0  0  0  0  0  0  0  0  0  0  0
   31.8871   16.0030   10.5875 H   0  0  0  0  0  0  0  0  0  0  0  0
   31.4536   15.1967   12.0990 H   0  0  0  0  0  0  0  0  0  0  0  0
   30.6917   16.7319   11.6729 H   0  0  0  0  0  0  0  0  0  0  0  0
   27.9722   14.5853   10.8664 H   0  0  0  0  0  0  0  0  0  0  0  0
   28.7313   15.4729   12.2239 H   0  0  0  0  0  0  0  0  0  0  0  0
   29.0999   13.7819   11.9797 H   0  0  0  0  0  0  0  0  0  0  0  0
   29.7230   10.6364    8.6511 H   0  0  0  0  0  0  0  0  0  0  0  0
  1  2  1  0
  2  3  2  0
  3  4  1  0
  4  5  1  0
  5  6  1  0
  6  7  2  0
  6  8  1  0
  8  9  1  0
  9 10  1  0
 10 11  1  0
 11 12  1  0
  4 13  2  0
 13 14  1  0
 14 15  1  0
 15 16  1  0
 16 17  1  0
 17 18  2  0
 17 19  1  0
 19 20  1  0
 19 21  1  0
 14 22  2  0
 22  2  1  0
 12  8  1  0
  1 23  1  0
  1 24  1  0
  1 25  1  0
  3 26  1  0
  5 27  1  0
  8 28  1  0
  9 29  1  0
  9 30  1  0
 10 31  1  0
 10 32  1  0
 11 33  1  0
 11 34  1  0
 13 35  1  0
 16 36  1  0
 16 37  1  0
 20 38  1  0
 20 39  1  0
 20 40  1  0
 21 41  1  0
 21 42  1  0
 21 43  1  0
 22 44  1  0
M  END
