LIG
     RDKit          3D

 41 42  0  0  0  0  0  0  0  0999 V2000
   30.4924    8.7692    8.1327 C   0  0  0  0  0  0  0  0  0  0  0  0
   31.3181    9.6545    7.2532 C   0  0  0  0  0  0  0  0  0  0  0  0
   30.8958   10.9424    6.9453 C   0  0  0  0  0  0  0  0  0  0  0  0
   31.7566   11.8760    6.3819 C   0  0  0  0  0  0  0  0  0  0  0  0
   31.3069   13.1538    5.7535 C   0  0  0  0  0  0  0  0  0  0  0  0
   33.0802   11.5287    6.2889 C   0  0  0  0  0  0  0  0  0  0  0  0
   34.0886   12.4971    6.3506 N   0  0  0  0  0  0  0  0  0  0  0  0
   34.2976   13.3715    7.3965 C   0  0  0  0  0  0  0  0  0  0  0  0
   35.4212   13.8911    7.4596 O   0  0  0  0  0  0  0  0  0  0  0  0
   33.2875   13.6961    8.5571 C   0  0  0  0  0  0  0  0  0  0  0  0
   32.0463   13.0668    8.8521 O   0  0  0  0  0  0  0  0  0  0  0  0
   30.8795   13.8566    8.7641 C   0  0  0  0  0  0  0  0  0  0  0  0
   29.5616   13.0778    8.7030 C   0  0  0  0  0  0  0  0  0  0  0  0
   28.5702   13.8393    9.5353 C   0  0  0  0  0  0  0  0  0  0  0  0
   29.0963   15.1575    9.5863 N   0  0  0  0  0  0  0  0  0  0  0  0
   28.4948   16.0482    8.6210 C   0  0  0  0  0  0  0  0  0  0  0  0
   30.4914   15.0503    9.6212 C   0  0  0  0  0  0  0  0  0  0  0  0
   31.2843   15.8794   10.0395 O   0  0  0  0  0  0  0  0  0  0  0  0
   33.3859   10.1806    6.1672 C   0  0  0  0  0  0  0  0  0  0  0  0
   34.5604    9.7951    5.5929 O   0  0  0  0  0  0  0  0  0  0  0  0
   32.5168    9.2370    6.6979 C   0  0  0  0  0  0  0  0  0  0  0  0
   30.5850    9.0903    9.1744 H   0  0  0  0  0  0  0  0  0  0  0  0
   30.8380    7.7419    8.0659 H   0  0  0  0  0  0  0  0  0  0  0  0
   29.4374    8.7859    7.8577 H   0  0  0  0  0  0  0  0  0  0  0  0
   29.8652   11.2024    7.1383 H   0  0  0  0  0  0  0  0  0  0  0  0
   31.4273   13.0920    4.6660 H   0  0  0  0  0  0  0  0  0  0  0  0
   30.2547   13.3795    5.9274 H   0  0  0  0  0  0  0  0  0  0  0  0
   31.9386   13.9851    6.0520 H   0  0  0  0  0  0  0  0  0  0  0  0
   35.0020   12.1723    6.0392 H   0  0  0  0  0  0  0  0  0  0  0  0
   33.8934   13.4376    9.4333 H   0  0  0  0  0  0  0  0  0  0  0  0
   33.1966   14.7791    8.6254 H   0  0  0  0  0  0  0  0  0  0  0  0
   30.9457   14.3339    7.7989 H   0  0  0  0  0  0  0  0  0  0  0  0
   29.1692   13.0947    7.6811 H   0  0  0  0  0  0  0  0  0  0  0  0
   29.6511   12.0341    8.9788 H   0  0  0  0  0  0  0  0  0  0  0  0
   27.5890   13.8303    9.0690 H   0  0  0  0  0  0  0  0  0  0  0  0
   28.4684   13.5047   10.5663 H   0  0  0  0  0  0  0  0  0  0  0  0
   27.4450   16.1366    8.9018 H   0  0  0  0  0  0  0  0  0  0  0  0
   28.9699   17.0248    8.6021 H   0  0  0  0  0  0  0  0  0  0  0  0
   28.5805   15.6245    7.6146 H   0  0  0  0  0  0  0  0  0  0  0  0
   34.5762    8.8199    5.5554 H   0  0  0  0  0  0  0  0  0  0  0  0
   32.8038    8.1965    6.7666 H   0  0  0  0  0  0  0  0  0  0  0  0
  1  2  1  0
  2  3  2  0
  3  4  1  0
  4  5  1  0
  4  6  2  0
  6  7  1  0
  7  8  1  0
  8  9  2  0
  8 10  1  0
 10 11  1  0
 11 12  1  0
 12 13  1  0
 13 14  1  0
 14 15  1  0
 15 16  1  0
 15 17  1  0
 17 18  2  0
  6 19  1  0
 19 20  1  0
 19 21  2  0
 21  2  1  0
 17 12  1  0
  1 22  1  0
  1 23  1  0
  1 24  1  0
  3 25  1  0
  5 26  1  0
  5 27  1  0
  5 28  1  0
  7 29  1  0
 10 30  1  0
 10 31  1  0
 12 32  1  0
 13 33  1  0
 13 34  1  0
 14 35  1  0
 14 36  1  0
 16 37  1  0
 16 38  1  0
 16 39  1  0
 20 40  1  0
 21 41  1  0
M  END
