LIG
     RDKit          3D

 40 40  0  0  0  0  0  0  0  0999 V2000
   33.8014   10.1172    5.0815 C   0  0  0  0  0  0  0  0  0  0  0  0
   32.7714   10.5851    6.0567 C   0  0  0  0  0  0  0  0  0  0  0  0
   31.9695    9.6672    6.7362 C   0  0  0  0  0  0  0  0  0  0  0  0
   30.9751   10.0857    7.6397 C   0  0  0  0  0  0  0  0  0  0  0  0
   30.2604    9.0337    8.4395 C   0  0  0  0  0  0  0  0  0  0  0  0
   30.6777   11.4514    7.7447 C   0  0  0  0  0  0  0  0  0  0  0  0
   29.6057   11.8267    8.4925 O   0  0  0  0  0  0  0  0  0  0  0  0
   29.3492   13.2061    8.7204 C   0  0  0  0  0  0  0  0  0  0  0  0
   30.3233   14.0191    9.6229 C   0  0  0  0  0  0  0  0  0  0  0  0
   31.5459   13.9559    9.5011 O   0  0  0  0  0  0  0  0  0  0  0  0
   29.7998   14.9239   10.5426 N   0  0  0  0  0  0  0  0  0  0  0  0
   30.7801   15.6362   11.3471 C   0  0  0  0  0  0  0  0  0  0  0  0
   28.5380   14.6408   11.1659 C   0  0  0  0  0  0  0  0  0  0  0  0
   31.5182   12.3538    7.1206 C   0  0  0  0  0  0  0  0  0  0  0  0
   32.6322   11.9187    6.4135 C   0  0  0  0  0  0  0  0  0  0  0  0
   33.6699   12.8462    6.2286 N   0  0  0  0  0  0  0  0  0  0  0  0
   34.2742   13.3902    7.3697 C   0  0  0  0  0  0  0  0  0  0  0  0
   34.0093   13.0663    8.5308 O   0  0  0  0  0  0  0  0  0  0  0  0
   35.3091   14.4595    7.1110 C   0  0  0  0  0  0  0  0  0  0  0  0
   35.7634   14.6432    5.3680 S   0  0  0  0  0  0  0  0  0  0  0  0
   34.8092   10.2748    5.4746 H   0  0  0  0  0  0  0  0  0  0  0  0
   33.6926    9.0510    4.8599 H   0  0  0  0  0  0  0  0  0  0  0  0
   33.6994   10.6593    4.1356 H   0  0  0  0  0  0  0  0  0  0  0  0
   32.1498    8.6008    6.6082 H   0  0  0  0  0  0  0  0  0  0  0  0
   30.0893    9.3750    9.4623 H   0  0  0  0  0  0  0  0  0  0  0  0
   29.3152    8.7589    7.9713 H   0  0  0  0  0  0  0  0  0  0  0  0
   30.8733    8.1317    8.5225 H   0  0  0  0  0  0  0  0  0  0  0  0
   29.2606   13.7392    7.7642 H   0  0  0  0  0  0  0  0  0  0  0  0
   28.3410   13.2437    9.1368 H   0  0  0  0  0  0  0  0  0  0  0  0
   31.1332   14.9661   12.1213 H   0  0  0  0  0  0  0  0  0  0  0  0
   30.3432   16.5142   11.8212 H   0  0  0  0  0  0  0  0  0  0  0  0
   31.6316   15.9618   10.7442 H   0  0  0  0  0  0  0  0  0  0  0  0
   27.7404   14.9339   10.4806 H   0  0  0  0  0  0  0  0  0  0  0  0
   28.4284   13.5843   11.3898 H   0  0  0  0  0  0  0  0  0  0  0  0
   28.4643   15.1817   12.1096 H   0  0  0  0  0  0  0  0  0  0  0  0
   31.4046   13.4215    7.2405 H   0  0  0  0  0  0  0  0  0  0  0  0
   34.3623   12.6561    5.5107 H   0  0  0  0  0  0  0  0  0  0  0  0
   36.2055   14.2069    7.6830 H   0  0  0  0  0  0  0  0  0  0  0  0
   34.9030   15.4042    7.4709 H   0  0  0  0  0  0  0  0  0  0  0  0
   35.6732   15.9894    5.3349 H   0  0  0  0  0  0  0  0  0  0  0  0
  1  2  1  0
  2  3  2  0
  3  4  1  0
  4  5  1  0
  4  6  2  0
  6  7  1  0
  7  8  1  0
  8  9  1  0
  9 10  2  0
  9 11  1  0
 11 12  1  0
 11 13  1  0
  6 14  1  0
 14 15  2  0
 15 16  1  0
 16 17  1  0
 17 18  2  0
 17 19  1  0
 19 20  1  0
 15  2  1  0
  1 21  1  0
  1 22  1  0
  1 23  1  0
  3 24  1  0
  5 25  1  0
  5 26  1  0
  5 27  1  0
  8 28  1  0
  8 29  1  0
 12 30  1  0
 12 31  1  0
 12 32  1  0
 13 33  1  0
 13 34  1  0
 13 35  1  0
 14 36  1  0
 16 37  1  0
 19 38  1  0
 19 39  1  0
 20 40  1  0
M  END
