LIG
     RDKit          3D

 48 49  0  0  0  0  0  0  0  0999 V2000
   31.6045    8.1351    8.0655 C   0  0  0  0  0  0  0  0  0  0  0  0
   31.4902    9.5585    7.7082 C   0  0  0  0  0  0  0  0  0  0  0  0
   30.5177   10.3219    8.3399 C   0  0  0  0  0  0  0  0  0  0  0  0
   30.2990   11.6316    7.9595 C   0  0  0  0  0  0  0  0  0  0  0  0
   29.2446   12.2647    8.5417 O   0  0  0  0  0  0  0  0  0  0  0  0
   29.3404   13.6579    8.7354 C   0  0  0  0  0  0  0  0  0  0  0  0
   30.4164   14.1964    9.7020 C   0  0  0  0  0  0  0  0  0  0  0  0
   31.6084   13.9132    9.6042 O   0  0  0  0  0  0  0  0  0  0  0  0
   29.9881   15.1315   10.6557 N   0  0  0  0  0  0  0  0  0  0  0  0
   31.0530   15.8663   11.3172 C   0  0  0  0  0  0  0  0  0  0  0  0
   28.9304   14.6961   11.5359 C   0  0  0  0  0  0  0  0  0  0  0  0
   31.0738   12.1690    6.9478 C   0  0  0  0  0  0  0  0  0  0  0  0
   32.0890   11.4178    6.3485 C   0  0  0  0  0  0  0  0  0  0  0  0
   32.8943   11.8213    5.3266 O   0  0  0  0  0  0  0  0  0  0  0  0
   32.8189   13.1804    4.9361 C   0  0  0  0  0  0  0  0  0  0  0  0
   33.5466   13.9949    5.9775 C   0  0  0  0  0  0  0  0  0  0  0  0
   33.1967   13.9444    7.1593 O   0  0  0  0  0  0  0  0  0  0  0  0
   34.6204   14.7610    5.5982 N   0  0  0  0  0  0  0  0  0  0  0  0
   35.6094   14.9298    6.6509 C   0  0  0  0  0  0  0  0  0  0  0  0
   36.6230   13.7932    6.4884 C   0  0  0  0  0  0  0  0  0  0  0  0
   37.3035   13.9488    5.2245 O   0  0  0  0  0  0  0  0  0  0  0  0
   36.3640   13.8160    4.1393 C   0  0  0  0  0  0  0  0  0  0  0  0
   35.2256   14.8356    4.2627 C   0  0  0  0  0  0  0  0  0  0  0  0
   32.3014   10.1108    6.7315 C   0  0  0  0  0  0  0  0  0  0  0  0
   31.9569    8.0094    9.0859 H   0  0  0  0  0  0  0  0  0  0  0  0
   30.6160    7.6795    7.9881 H   0  0  0  0  0  0  0  0  0  0  0  0
   32.2834    7.6447    7.3760 H   0  0  0  0  0  0  0  0  0  0  0  0
   29.9111    9.8664    9.1131 H   0  0  0  0  0  0  0  0  0  0  0  0
   29.4634   14.1850    7.7816 H   0  0  0  0  0  0  0  0  0  0  0  0
   28.3503   13.9806    9.0644 H   0  0  0  0  0  0  0  0  0  0  0  0
   31.8304   16.1586   10.6093 H   0  0  0  0  0  0  0  0  0  0  0  0
   31.5027   15.2398   12.0782 H   0  0  0  0  0  0  0  0  0  0  0  0
   30.6569   16.7673   11.7891 H   0  0  0  0  0  0  0  0  0  0  0  0
   29.2669   13.8101   12.0672 H   0  0  0  0  0  0  0  0  0  0  0  0
   28.7291   15.4621   12.2839 H   0  0  0  0  0  0  0  0  0  0  0  0
   28.0162   14.4679   10.9898 H   0  0  0  0  0  0  0  0  0  0  0  0
   30.8712   13.1757    6.6195 H   0  0  0  0  0  0  0  0  0  0  0  0
   33.2911   13.2246    3.9571 H   0  0  0  0  0  0  0  0  0  0  0  0
   31.7974   13.5449    4.7877 H   0  0  0  0  0  0  0  0  0  0  0  0
   35.1758   14.9205    7.6546 H   0  0  0  0  0  0  0  0  0  0  0  0
   36.0785   15.8937    6.4785 H   0  0  0  0  0  0  0  0  0  0  0  0
   36.1308   12.8173    6.4891 H   0  0  0  0  0  0  0  0  0  0  0  0
   37.3701   13.7779    7.2845 H   0  0  0  0  0  0  0  0  0  0  0  0
   35.9771   12.7902    4.1343 H   0  0  0  0  0  0  0  0  0  0  0  0
   36.9104   13.9723    3.2041 H   0  0  0  0  0  0  0  0  0  0  0  0
   35.6540   15.8343    4.1473 H   0  0  0  0  0  0  0  0  0  0  0  0
   34.4834   14.7179    3.4717 H   0  0  0  0  0  0  0  0  0  0  0  0
   33.0670    9.5159    6.2406 H   0  0  0  0  0  0  0  0  0  0  0  0
  1  2  1  0
  2  3  2  0
  3  4  1  0
  4  5  1  0
  5  6  1  0
  6  7  1  0
  7  8  2  0
  7  9  1  0
  9 10  1  0
  9 11  1  0
  4 12  2  0
 12 13  1  0
 13 14  1  0
 14 15  1  0
 15 16  1  0
 16 17  2  0
 16 18  1  0
 18 19  1  0
 19 20  1  0
 20 21  1  0
 21 22  1  0
 22 23  1  0
 13 24  2  0
 24  2  1  0
 23 18  1  0
  1 25  1  0
  1 26  1  0
  1 27  1  0
  3 28  1  0
  6 29  1  0
  6 30  1  0
 10 31  1  0
 10 32  1  0
 10 33  1  0
 11 34  1  0
 11 35  1  0
 11 36  1  0
 12 37  1  0
 15 38  1  0
 15 39  1  0
 19 40  1  0
 19 41  1  0
 20 42  1  0
 20 43  1  0
 22 44  1  0
 22 45  1  0
 23 46  1  0
 23 47  1  0
 24 48  1  0
M  END
