LIG
     RDKit          3D

 34 34  0  0  0  0  0  0  0  0999 V2000
   30.8194   15.6984   11.3899 C   0  0  0  0  0  0  0  0  0  0  0  0
   29.8264   14.9729   10.6148 N   0  0  0  0  0  0  0  0  0  0  0  0
   28.5787   14.6913   11.2805 C   0  0  0  0  0  0  0  0  0  0  0  0
   30.2973   14.0784    9.6689 C   0  0  0  0  0  0  0  0  0  0  0  0
   31.5137   13.9649    9.5067 O   0  0  0  0  0  0  0  0  0  0  0  0
   29.2644   13.3401    8.7680 C   0  0  0  0  0  0  0  0  0  0  0  0
   29.4521   11.9667    8.4566 O   0  0  0  0  0  0  0  0  0  0  0  0
   30.5408   11.5714    7.7544 C   0  0  0  0  0  0  0  0  0  0  0  0
   30.7521   10.1933    7.6664 C   0  0  0  0  0  0  0  0  0  0  0  0
   31.7846    9.6851    6.8749 C   0  0  0  0  0  0  0  0  0  0  0  0
   32.6534   10.5622    6.2458 C   0  0  0  0  0  0  0  0  0  0  0  0
   33.6139   10.0928    5.4412 F   0  0  0  0  0  0  0  0  0  0  0  0
   32.5612   11.9190    6.5087 C   0  0  0  0  0  0  0  0  0  0  0  0
   33.6469   12.7845    6.2858 N   0  0  0  0  0  0  0  0  0  0  0  0
   34.2547   13.3478    7.4138 C   0  0  0  0  0  0  0  0  0  0  0  0
   34.0089   13.0054    8.5737 O   0  0  0  0  0  0  0  0  0  0  0  0
   35.2682   14.4367    7.1513 C   0  0  0  0  0  0  0  0  0  0  0  0
   35.7294   14.6216    5.4106 S   0  0  0  0  0  0  0  0  0  0  0  0
   31.4435   12.4278    7.1547 C   0  0  0  0  0  0  0  0  0  0  0  0
   30.3915   16.5858   11.8550 H   0  0  0  0  0  0  0  0  0  0  0  0
   31.1923   15.0381   12.1629 H   0  0  0  0  0  0  0  0  0  0  0  0
   31.6579   16.0092   10.7615 H   0  0  0  0  0  0  0  0  0  0  0  0
   27.7582   14.9459   10.6084 H   0  0  0  0  0  0  0  0  0  0  0  0
   28.5062   13.6377   11.5338 H   0  0  0  0  0  0  0  0  0  0  0  0
   28.5204   15.2564   12.2108 H   0  0  0  0  0  0  0  0  0  0  0  0
   29.1754   13.9187    7.8386 H   0  0  0  0  0  0  0  0  0  0  0  0
   28.2720   13.3927    9.2152 H   0  0  0  0  0  0  0  0  0  0  0  0
   30.0772    9.5097    8.1782 H   0  0  0  0  0  0  0  0  0  0  0  0
   31.9237    8.6148    6.7764 H   0  0  0  0  0  0  0  0  0  0  0  0
   34.3477   12.4826    5.6145 H   0  0  0  0  0  0  0  0  0  0  0  0
   34.8450   15.3755    7.5076 H   0  0  0  0  0  0  0  0  0  0  0  0
   36.1683   14.2059    7.7272 H   0  0  0  0  0  0  0  0  0  0  0  0
   35.6010   15.9650    5.3717 H   0  0  0  0  0  0  0  0  0  0  0  0
   31.3559   13.5017    7.2441 H   0  0  0  0  0  0  0  0  0  0  0  0
  1  2  1  0
  2  3  1  0
  2  4  1  0
  4  5  2  0
  4  6  1  0
  6  7  1  0
  7  8  1  0
  8  9  2  0
  9 10  1  0
 10 11  2  0
 11 12  1  0
 11 13  1  0
 13 14  1  0
 14 15  1  0
 15 16  2  0
 15 17  1  0
 17 18  1  0
 13 19  2  0
 19  8  1  0
  1 20  1  0
  1 21  1  0
  1 22  1  0
  3 23  1  0
  3 24  1  0
  3 25  1  0
  6 26  1  0
  6 27  1  0
  9 28  1  0
 10 29  1  0
 14 30  1  0
 17 31  1  0
 17 32  1  0
 18 33  1  0
 19 34  1  0
M  END
