LIG
     RDKit          3D

 48 49  0  0  0  0  0  0  0  0999 V2000
   31.6047    8.1353    8.0657 C   0  0  0  0  0  0  0  0  0  0  0  0
   31.4900    9.5586    7.7084 C   0  0  0  0  0  0  0  0  0  0  0  0
   30.5174   10.3219    8.3399 C   0  0  0  0  0  0  0  0  0  0  0  0
   30.2984   11.6316    7.9593 C   0  0  0  0  0  0  0  0  0  0  0  0
   29.2440   12.2646    8.5415 O   0  0  0  0  0  0  0  0  0  0  0  0
   29.3401   13.6579    8.7352 C   0  0  0  0  0  0  0  0  0  0  0  0
   30.4161   14.1961    9.7021 C   0  0  0  0  0  0  0  0  0  0  0  0
   31.6079   13.9119    9.6049 O   0  0  0  0  0  0  0  0  0  0  0  0
   29.9879   15.1316   10.6555 N   0  0  0  0  0  0  0  0  0  0  0  0
   28.9304   14.6963   11.5359 C   0  0  0  0  0  0  0  0  0  0  0  0
   31.0531   15.8661   11.3168 C   0  0  0  0  0  0  0  0  0  0  0  0
   31.0729   12.1688    6.9473 C   0  0  0  0  0  0  0  0  0  0  0  0
   32.0883   11.4177    6.3482 C   0  0  0  0  0  0  0  0  0  0  0  0
   32.8931   11.8207    5.3259 O   0  0  0  0  0  0  0  0  0  0  0  0
   32.8192   13.1801    4.9361 C   0  0  0  0  0  0  0  0  0  0  0  0
   33.5467   13.9942    5.9780 C   0  0  0  0  0  0  0  0  0  0  0  0
   33.1955   13.9444    7.1594 O   0  0  0  0  0  0  0  0  0  0  0  0
   34.6209   14.7596    5.5989 N   0  0  0  0  0  0  0  0  0  0  0  0
   35.6108   14.9269    6.6513 C   0  0  0  0  0  0  0  0  0  0  0  0
   36.6264   13.7925    6.4850 C   0  0  0  0  0  0  0  0  0  0  0  0
   37.3045   13.9522    5.2204 O   0  0  0  0  0  0  0  0  0  0  0  0
   36.3639   13.8187    4.1365 C   0  0  0  0  0  0  0  0  0  0  0  0
   35.2247   14.8367    4.2629 C   0  0  0  0  0  0  0  0  0  0  0  0
   32.3011   10.1108    6.7316 C   0  0  0  0  0  0  0  0  0  0  0  0
   30.6164    7.6795    7.9881 H   0  0  0  0  0  0  0  0  0  0  0  0
   32.2839    7.6451    7.3764 H   0  0  0  0  0  0  0  0  0  0  0  0
   31.9570    8.0096    9.0863 H   0  0  0  0  0  0  0  0  0  0  0  0
   29.9110    9.8666    9.1133 H   0  0  0  0  0  0  0  0  0  0  0  0
   28.3501   13.9808    9.0642 H   0  0  0  0  0  0  0  0  0  0  0  0
   29.4634   14.1851    7.7815 H   0  0  0  0  0  0  0  0  0  0  0  0
   28.0161   14.4680   10.9899 H   0  0  0  0  0  0  0  0  0  0  0  0
   29.2669   13.8103   12.0672 H   0  0  0  0  0  0  0  0  0  0  0  0
   28.7293   15.4624   12.2839 H   0  0  0  0  0  0  0  0  0  0  0  0
   30.6573   16.7674   11.7885 H   0  0  0  0  0  0  0  0  0  0  0  0
   31.5027   15.2396   12.0780 H   0  0  0  0  0  0  0  0  0  0  0  0
   31.8306   16.1579   10.6088 H   0  0  0  0  0  0  0  0  0  0  0  0
   30.8702   13.1754    6.6185 H   0  0  0  0  0  0  0  0  0  0  0  0
   33.2920   13.2241    3.9574 H   0  0  0  0  0  0  0  0  0  0  0  0
   31.7980   13.5453    4.7871 H   0  0  0  0  0  0  0  0  0  0  0  0
   35.1783   14.9143    7.6553 H   0  0  0  0  0  0  0  0  0  0  0  0
   36.0779   15.8922    6.4808 H   0  0  0  0  0  0  0  0  0  0  0  0
   37.3747   13.7770    7.2799 H   0  0  0  0  0  0  0  0  0  0  0  0
   36.1361   12.8156    6.4845 H   0  0  0  0  0  0  0  0  0  0  0  0
   35.9784   12.7923    4.1312 H   0  0  0  0  0  0  0  0  0  0  0  0
   36.9087   13.9766    3.2006 H   0  0  0  0  0  0  0  0  0  0  0  0
   34.4817   14.7195    3.4725 H   0  0  0  0  0  0  0  0  0  0  0  0
   35.6520   15.8358    4.1485 H   0  0  0  0  0  0  0  0  0  0  0  0
   33.0673    9.5165    6.2410 H   0  0  0  0  0  0  0  0  0  0  0  0
  1  2  1  0
  2  3  2  0
  3  4  1  0
  4  5  1  0
  5  6  1  0
  6  7  1  0
  7  8  2  0
  7  9  1  0
  9 10  1  0
  9 11  1  0
  4 12  2  0
 12 13  1  0
 13 14  1  0
 14 15  1  0
 15 16  1  0
 16 17  2  0
 16 18  1  0
 18 19  1  0
 19 20  1  0
 20 21  1  0
 21 22  1  0
 22 23  1  0
 13 24  2  0
 24  2  1  0
 23 18  1  0
  1 25  1  0
  1 26  1  0
  1 27  1  0
  3 28  1  0
  6 29  1  0
  6 30  1  0
 10 31  1  0
 10 32  1  0
 10 33  1  0
 11 34  1  0
 11 35  1  0
 11 36  1  0
 12 37  1  0
 15 38  1  0
 15 39  1  0
 19 40  1  0
 19 41  1  0
 20 42  1  0
 20 43  1  0
 22 44  1  0
 22 45  1  0
 23 46  1  0
 23 47  1  0
 24 48  1  0
M  END
