LIG
     RDKit          3D

 27 27  0  0  0  0  0  0  0  0999 V2000
   34.4770    9.6170    4.1420 C   0  0  0  0  0  0  0  0  0  0  0  0
   34.7220   11.0190    4.6240 C   0  0  0  0  0  0  0  0  0  0  0  0
   35.7630   11.6170    4.3630 O   0  0  0  0  0  0  0  0  0  0  0  0
   32.8710   10.7518    5.4528 N   0  0  0  0  0  0  0  0  0  0  0  0
   31.5450   11.9340    7.6020 C   0  0  0  0  0  0  0  0  0  0  0  0
   30.7220   10.8640    7.9390 C   0  0  0  0  0  0  0  0  0  0  0  0
   31.0170    9.5590    7.5720 C   0  0  0  0  0  0  0  0  0  0  0  0
   32.1560    9.3390    6.8090 C   0  0  0  0  0  0  0  0  0  0  0  0
   33.0110   10.3720    6.4380 C   0  0  0  0  0  0  0  0  0  0  0  0
   32.7080   11.6650    6.8730 C   0  0  0  0  0  0  0  0  0  0  0  0
   33.6520   12.7090    6.6590 N   0  0  0  0  0  0  0  0  0  0  0  0
   34.4250   13.2280    7.6390 C   0  0  0  0  0  0  0  0  0  0  0  0
   34.9120   12.5690    8.5560 O   0  0  0  0  0  0  0  0  0  0  0  0
   34.6680   14.7180    7.5670 C   0  0  0  0  0  0  0  0  0  0  0  0
   35.0470   15.1300    6.2680 O   0  0  0  0  0  0  0  0  0  0  0  0
   33.7578    9.0992    4.7852 H   0  0  0  0  0  0  0  0  0  0  0  0
   34.7381    8.9077    4.9331 H   0  0  0  0  0  0  0  0  0  0  0  0
   35.4150    9.0526    4.1649 H   0  0  0  0  0  0  0  0  0  0  0  0
   32.2748   10.1881    4.8666 H   0  0  0  0  0  0  0  0  0  0  0  0
   29.8153   11.0118    8.5404 H   0  0  0  0  0  0  0  0  0  0  0  0
   30.3908    8.7418    7.8795 H   0  0  0  0  0  0  0  0  0  0  0  0
   32.3861    8.3118    6.4773 H   0  0  0  0  0  0  0  0  0  0  0  0
   33.8486   10.1451    5.8164 H   0  0  0  0  0  0  0  0  0  0  0  0
   33.8415   13.0043    5.7455 H   0  0  0  0  0  0  0  0  0  0  0  0
   33.7418   15.2396    7.8391 H   0  0  0  0  0  0  0  0  0  0  0  0
   35.4589   15.0020    8.2735 H   0  0  0  0  0  0  0  0  0  0  0  0
   34.2238   15.3849    5.8056 H   0  0  0  0  0  0  0  0  0  0  0  0
  1  2  1  0
  2  3  2  0
  2  4  1  0
  4  5  1  0
  5  6  4  0
  6  7  4  0
  7  8  4  0
  8  9  4  0
  9 10  4  0
 10 11  1  0
 11 12  1  0
 12 13  2  0
 12 14  1  0
 14 15  1  0
 10  5  4  0
  1 16  1  0
  1 17  1  0
  1 18  1  0
  4 19  1  0
  6 20  1  0
  7 21  1  0
  8 22  1  0
  9 23  1  0
 11 24  1  0
 14 25  1  0
 14 26  1  0
 15 27  1  0
M  END
