LIG
     RDKit          3D

 42 43  0  0  0  0  0  0  0  0999 V2000
   34.0148    9.4618    5.5870 C   0  0  0  0  0  0  0  0  0  0  0  0
   32.9692    9.9350    6.5472 C   0  0  0  0  0  0  0  0  0  0  0  0
   32.0637    9.0334    7.1399 C   0  0  0  0  0  0  0  0  0  0  0  0
   30.9742    9.4803    7.8928 C   0  0  0  0  0  0  0  0  0  0  0  0
   30.8400   10.8413    8.0576 C   0  0  0  0  0  0  0  0  0  0  0  0
   29.6440   11.4716    8.3805 N   0  0  0  0  0  0  0  0  0  0  0  0
   29.2471   12.5957    7.6618 C   0  0  0  0  0  0  0  0  0  0  0  0
   29.7179   12.9232    6.5704 O   0  0  0  0  0  0  0  0  0  0  0  0
   28.1616   13.3907    8.2985 C   0  0  0  0  0  0  0  0  0  0  0  0
   28.4382   14.8133    8.1748 C   0  0  0  0  0  0  0  0  0  0  0  0
   28.6667   15.9457    8.0904 N   0  0  0  0  0  0  0  0  0  0  0  0
   31.8769   11.6866    7.7488 C   0  0  0  0  0  0  0  0  0  0  0  0
   32.8356   11.2807    6.8499 C   0  0  0  0  0  0  0  0  0  0  0  0
   33.5873   12.2180    6.2039 O   0  0  0  0  0  0  0  0  0  0  0  0
   32.7554   13.3318    5.8866 C   0  0  0  0  0  0  0  0  0  0  0  0
   33.3868   14.2878    4.9371 C   0  0  0  0  0  0  0  0  0  0  0  0
   32.6906   14.7804    4.0512 O   0  0  0  0  0  0  0  0  0  0  0  0
   34.7107   14.5747    5.1189 N   0  0  0  0  0  0  0  0  0  0  0  0
   35.3922   14.5420    6.4137 C   0  0  0  0  0  0  0  0  0  0  0  0
   36.6643   13.7162    6.2785 C   0  0  0  0  0  0  0  0  0  0  0  0
   37.5183   14.2935    5.2703 O   0  0  0  0  0  0  0  0  0  0  0  0
   36.8590   14.2688    3.9897 C   0  0  0  0  0  0  0  0  0  0  0  0
   35.5285   15.0287    4.0047 C   0  0  0  0  0  0  0  0  0  0  0  0
   34.4647    8.5297    5.9314 H   0  0  0  0  0  0  0  0  0  0  0  0
   34.8265   10.1855    5.4647 H   0  0  0  0  0  0  0  0  0  0  0  0
   33.5685    9.2924    4.6036 H   0  0  0  0  0  0  0  0  0  0  0  0
   32.1637    7.9701    6.9628 H   0  0  0  0  0  0  0  0  0  0  0  0
   30.2069    8.7789    8.2056 H   0  0  0  0  0  0  0  0  0  0  0  0
   28.9274   10.9421    8.8701 H   0  0  0  0  0  0  0  0  0  0  0  0
   27.2621   13.1370    7.7410 H   0  0  0  0  0  0  0  0  0  0  0  0
   28.0523   13.1206    9.3498 H   0  0  0  0  0  0  0  0  0  0  0  0
   31.8075   12.7143    8.0856 H   0  0  0  0  0  0  0  0  0  0  0  0
   31.8410   12.9859    5.3894 H   0  0  0  0  0  0  0  0  0  0  0  0
   32.5197   13.9222    6.7710 H   0  0  0  0  0  0  0  0  0  0  0  0
   34.7553   14.1623    7.2145 H   0  0  0  0  0  0  0  0  0  0  0  0
   35.6405   15.5767    6.6599 H   0  0  0  0  0  0  0  0  0  0  0  0
   37.2152   13.6855    7.2223 H   0  0  0  0  0  0  0  0  0  0  0  0
   36.4417   12.6809    5.9954 H   0  0  0  0  0  0  0  0  0  0  0  0
   36.7043   13.2223    3.7000 H   0  0  0  0  0  0  0  0  0  0  0  0
   37.5378   14.7168    3.2570 H   0  0  0  0  0  0  0  0  0  0  0  0
   35.0029   14.8896    3.0542 H   0  0  0  0  0  0  0  0  0  0  0  0
   35.7377   16.0879    4.1185 H   0  0  0  0  0  0  0  0  0  0  0  0
  1  2  1  0
  2  3  2  0
  3  4  1  0
  4  5  2  0
  5  6  1  0
  6  7  1  0
  7  8  2  0
  7  9  1  0
  9 10  1  0
 10 11  3  0
  5 12  1  0
 12 13  2  0
 13 14  1  0
 14 15  1  0
 15 16  1  0
 16 17  2  0
 16 18  1  0
 18 19  1  0
 19 20  1  0
 20 21  1  0
 21 22  1  0
 22 23  1  0
 13  2  1  0
 23 18  1  0
  1 24  1  0
  1 25  1  0
  1 26  1  0
  3 27  1  0
  4 28  1  0
  6 29  1  0
  9 30  1  0
  9 31  1  0
 12 32  1  0
 15 33  1  0
 15 34  1  0
 19 35  1  0
 19 36  1  0
 20 37  1  0
 20 38  1  0
 22 39  1  0
 22 40  1  0
 23 41  1  0
 23 42  1  0
M  END
