LIG
     RDKit          3D

 38 39  0  0  0  0  0  0  0  0999 V2000
   -3.7772   -2.0448    1.1397 C   0  0  0  0  0  0  0  0  0  0  0  0
   -2.7624   -1.1382    0.5064 C   0  0  0  0  0  0  0  0  0  0  0  0
   -3.0767   -0.4176   -0.6528 C   0  0  0  0  0  0  0  0  0  0  0  0
   -2.1267    0.4080   -1.2662 C   0  0  0  0  0  0  0  0  0  0  0  0
   -2.5349    1.0992   -2.4295 N   0  0  0  0  0  0  0  0  0  0  0  0
   -1.7893    1.9917   -3.1861 C   0  0  0  0  0  0  0  0  0  0  0  0
   -0.6339    2.3435   -2.9660 O   0  0  0  0  0  0  0  0  0  0  0  0
   -2.5303    2.5211   -4.3932 C   0  0  0  0  0  0  0  0  0  0  0  0
   -3.4738    3.5628   -3.9953 C   0  0  0  0  0  0  0  0  0  0  0  0
   -4.2599    4.3614   -3.6935 N   0  0  0  0  0  0  0  0  0  0  0  0
   -0.8487    0.4961   -0.7087 C   0  0  0  0  0  0  0  0  0  0  0  0
   -0.5101   -0.2308    0.4428 C   0  0  0  0  0  0  0  0  0  0  0  0
    0.8007   -0.0810    0.9309 N   0  0  0  0  0  0  0  0  0  0  0  0
    1.4009   -0.7215    2.0015 C   0  0  0  0  0  0  0  0  0  0  0  0
    0.8918   -1.5605    2.7380 O   0  0  0  0  0  0  0  0  0  0  0  0
    2.8342   -0.2089    2.2251 C   0  0  0  0  0  0  0  0  0  0  0  0
    3.7740   -1.3036    2.7057 C   0  0  0  0  0  0  0  0  0  0  0  0
    5.0972   -0.8719    2.1269 C   0  0  0  0  0  0  0  0  0  0  0  0
    4.6773   -0.2862    0.7992 C   0  0  0  0  0  0  0  0  0  0  0  0
    3.4069    0.3413    1.0209 O   0  0  0  0  0  0  0  0  0  0  0  0
   -1.4701   -1.0479    1.0401 C   0  0  0  0  0  0  0  0  0  0  0  0
   -3.6953   -3.0506    0.7163 H   0  0  0  0  0  0  0  0  0  0  0  0
   -3.6281   -2.1024    2.2231 H   0  0  0  0  0  0  0  0  0  0  0  0
   -4.7932   -1.6720    0.9722 H   0  0  0  0  0  0  0  0  0  0  0  0
   -4.0777   -0.5080   -1.0682 H   0  0  0  0  0  0  0  0  0  0  0  0
   -3.4975    0.9420   -2.7058 H   0  0  0  0  0  0  0  0  0  0  0  0
   -3.0468    1.6933   -4.8918 H   0  0  0  0  0  0  0  0  0  0  0  0
   -1.7979    2.9137   -5.1071 H   0  0  0  0  0  0  0  0  0  0  0  0
   -0.0907    1.1264   -1.1607 H   0  0  0  0  0  0  0  0  0  0  0  0
    1.4259    0.5342    0.4127 H   0  0  0  0  0  0  0  0  0  0  0  0
    2.7828    0.6063    2.9565 H   0  0  0  0  0  0  0  0  0  0  0  0
    3.4882   -2.2794    2.2940 H   0  0  0  0  0  0  0  0  0  0  0  0
    3.7902   -1.3955    3.7958 H   0  0  0  0  0  0  0  0  0  0  0  0
    5.5387   -0.0917    2.7581 H   0  0  0  0  0  0  0  0  0  0  0  0
    5.8198   -1.6858    2.0273 H   0  0  0  0  0  0  0  0  0  0  0  0
    4.5396   -1.0678    0.0440 H   0  0  0  0  0  0  0  0  0  0  0  0
    5.3903    0.4496    0.4171 H   0  0  0  0  0  0  0  0  0  0  0  0
   -1.2375   -1.6245    1.9307 H   0  0  0  0  0  0  0  0  0  0  0  0
  1  2  1  0
  2  3  2  0
  3  4  1  0
  4  5  1  0
  5  6  1  0
  6  7  2  0
  6  8  1  0
  8  9  1  0
  9 10  3  0
  4 11  2  0
 11 12  1  0
 12 13  1  0
 13 14  1  0
 14 15  2  0
 14 16  1  0
 16 17  1  0
 17 18  1  0
 18 19  1  0
 19 20  1  0
 12 21  2  0
 21  2  1  0
 20 16  1  0
  1 22  1  0
  1 23  1  0
  1 24  1  0
  3 25  1  0
  5 26  1  0
  8 27  1  0
  8 28  1  0
 11 29  1  0
 13 30  1  0
 16 31  1  0
 17 32  1  0
 17 33  1  0
 18 34  1  0
 18 35  1  0
 19 36  1  0
 19 37  1  0
 21 38  1  0
M  END
