LIG
     RDKit          3D

 40 40  0  0  0  0  0  0  0  0999 V2000
   32.6122   10.4607    4.6283 C   0  0  0  0  0  0  0  0  0  0  0  0
   31.7330   10.8470    5.8070 C   0  0  0  0  0  0  0  0  0  0  0  0
   31.2880    9.8340    6.6350 C   0  0  0  0  0  0  0  0  0  0  0  0
   30.4800   10.1020    7.7350 C   0  0  0  0  0  0  0  0  0  0  0  0
   29.9390    8.9850    8.5900 C   0  0  0  0  0  0  0  0  0  0  0  0
   30.1520   11.4340    7.9910 C   0  0  0  0  0  0  0  0  0  0  0  0
   29.4280   11.6110    9.1450 O   0  0  0  0  0  0  0  0  0  0  0  0
   28.8670   12.8920    9.4310 C   0  0  0  0  0  0  0  0  0  0  0  0
   29.9260   13.8300    9.9860 C   0  0  0  0  0  0  0  0  0  0  0  0
   31.1030   13.5010    9.9720 O   0  0  0  0  0  0  0  0  0  0  0  0
   29.5320   15.0110   10.4940 N   0  0  0  0  0  0  0  0  0  0  0  0
   30.5000   15.9370   11.0760 C   0  0  0  0  0  0  0  0  0  0  0  0
   28.1410   15.4480   10.5470 C   0  0  0  0  0  0  0  0  0  0  0  0
   30.5900   12.4580    7.1610 C   0  0  0  0  0  0  0  0  0  0  0  0
   31.3810   12.1530    6.0670 C   0  0  0  0  0  0  0  0  0  0  0  0
   33.6520   12.7090    6.6590 N   0  0  0  0  0  0  0  0  0  0  0  0
   34.4250   13.2280    7.6390 C   0  0  0  0  0  0  0  0  0  0  0  0
   34.8985   12.5891    8.6103 O   0  0  0  0  0  0  0  0  0  0  0  0
   34.6680   14.7180    7.5670 C   0  0  0  0  0  0  0  0  0  0  0  0
   35.0470   15.1300    6.2680 S   0  0  0  0  0  0  0  0  0  0  0  0
   33.5963   10.9315    4.7199 H   0  0  0  0  0  0  0  0  0  0  0  0
   32.7705    9.3781    4.5755 H   0  0  0  0  0  0  0  0  0  0  0  0
   32.1425   10.7674    3.6880 H   0  0  0  0  0  0  0  0  0  0  0  0
   31.5733    8.7977    6.4310 H   0  0  0  0  0  0  0  0  0  0  0  0
   29.4377    9.3703    9.4834 H   0  0  0  0  0  0  0  0  0  0  0  0
   30.7539    8.3343    8.9217 H   0  0  0  0  0  0  0  0  0  0  0  0
   29.2089    8.3975    8.0251 H   0  0  0  0  0  0  0  0  0  0  0  0
   28.4760   13.3386    8.5041 H   0  0  0  0  0  0  0  0  0  0  0  0
   28.0494   12.8205   10.1635 H   0  0  0  0  0  0  0  0  0  0  0  0
   30.3300   16.0010   12.1535 H   0  0  0  0  0  0  0  0  0  0  0  0
   30.4086   16.9370   10.6470 H   0  0  0  0  0  0  0  0  0  0  0  0
   31.5050   15.5543   10.8808 H   0  0  0  0  0  0  0  0  0  0  0  0
   28.0562   16.4813   10.8849 H   0  0  0  0  0  0  0  0  0  0  0  0
   27.5902   14.8151   11.2481 H   0  0  0  0  0  0  0  0  0  0  0  0
   27.9100   15.7510   11.5716 H   0  0  0  0  0  0  0  0  0  0  0  0
   30.3177   13.4730    7.3714 H   0  0  0  0  0  0  0  0  0  0  0  0
   33.9731   12.2724    5.7133 H   0  0  0  0  0  0  0  0  0  0  0  0
   33.7035   15.1548    8.0219 H   0  0  0  0  0  0  0  0  0  0  0  0
   35.4193   14.8997    8.4177 H   0  0  0  0  0  0  0  0  0  0  0  0
   35.1335   16.5045    6.3511 H   0  0  0  0  0  0  0  0  0  0  0  0
  1  2  1  0
  2  3  4  0
  3  4  4  0
  4  5  1  0
  4  6  4  0
  6  7  1  0
  7  8  1  0
  8  9  1  0
  9 10  2  0
  9 11  1  0
 11 12  1  0
 11 13  1  0
  6 14  4  0
 14 15  4  0
 15 16  1  0
 16 17  1  0
 17 18  2  0
 17 19  1  0
 19 20  1  0
 15  2  4  0
  1 21  1  0
  1 22  1  0
  1 23  1  0
  3 24  1  0
  5 25  1  0
  5 26  1  0
  5 27  1  0
  8 28  1  0
  8 29  1  0
 12 30  1  0
 12 31  1  0
 12 32  1  0
 13 33  1  0
 13 34  1  0
 13 35  1  0
 14 36  1  0
 16 37  1  0
 19 38  1  0
 19 39  1  0
 20 40  1  0
M  END
