LIG
     RDKit          3D

 38 39  0  0  0  0  0  0  0  0999 V2000
   35.2578    8.6049    3.9502 C   0  0  0  0  0  0  0  0  0  0  0  0
   34.5631    9.6322    4.7940 C   0  0  0  0  0  0  0  0  0  0  0  0
   34.7653   10.8277    4.6009 O   0  0  0  0  0  0  0  0  0  0  0  0
   33.6979    9.0350    5.7090 N   0  0  0  0  0  0  0  0  0  0  0  0
   32.6896    9.6669    6.4608 C   0  0  0  0  0  0  0  0  0  0  0  0
   32.3552   10.9485    6.1661 C   0  0  0  0  0  0  0  0  0  0  0  0
   31.3359   11.5566    6.8702 C   0  0  0  0  0  0  0  0  0  0  0  0
   30.9328   12.7472    6.4039 O   0  0  0  0  0  0  0  0  0  0  0  0
   31.9157   13.6885    6.6631 C   0  0  0  0  0  0  0  0  0  0  0  0
   33.2967   13.6045    7.3275 C   0  0  0  0  0  0  0  0  0  0  0  0
   33.3335   13.3804    8.5424 O   0  0  0  0  0  0  0  0  0  0  0  0
   34.4247   13.8543    6.5676 N   0  0  0  0  0  0  0  0  0  0  0  0
   35.6618   14.0779    7.3036 C   0  0  0  0  0  0  0  0  0  0  0  0
   36.8527   13.6179    6.4746 C   0  0  0  0  0  0  0  0  0  0  0  0
   36.9371   14.4134    5.2843 O   0  0  0  0  0  0  0  0  0  0  0  0
   35.8003   14.1271    4.4598 C   0  0  0  0  0  0  0  0  0  0  0  0
   34.4602   14.3484    5.1827 C   0  0  0  0  0  0  0  0  0  0  0  0
   30.6388   10.9674    7.9065 C   0  0  0  0  0  0  0  0  0  0  0  0
   30.9409    9.6629    8.2044 C   0  0  0  0  0  0  0  0  0  0  0  0
   31.9364    9.0280    7.4655 C   0  0  0  0  0  0  0  0  0  0  0  0
   32.1792    7.7666    7.7900 F   0  0  0  0  0  0  0  0  0  0  0  0
   36.0499    9.0824    3.3661 H   0  0  0  0  0  0  0  0  0  0  0  0
   35.7144    7.8354    4.5784 H   0  0  0  0  0  0  0  0  0  0  0  0
   34.5395    8.1449    3.2659 H   0  0  0  0  0  0  0  0  0  0  0  0
   33.7949    8.0253    5.8615 H   0  0  0  0  0  0  0  0  0  0  0  0
   32.8056   11.4892    5.3441 H   0  0  0  0  0  0  0  0  0  0  0  0
   32.0030   14.2581    5.7395 H   0  0  0  0  0  0  0  0  0  0  0  0
   31.3924   14.2723    7.4265 H   0  0  0  0  0  0  0  0  0  0  0  0
   35.6530   13.5678    8.2703 H   0  0  0  0  0  0  0  0  0  0  0  0
   35.7107   15.1531    7.4964 H   0  0  0  0  0  0  0  0  0  0  0  0
   37.7889   13.7151    7.0294 H   0  0  0  0  0  0  0  0  0  0  0  0
   36.7660   12.5635    6.1902 H   0  0  0  0  0  0  0  0  0  0  0  0
   35.8538   14.7694    3.5747 H   0  0  0  0  0  0  0  0  0  0  0  0
   35.8823   13.0931    4.1087 H   0  0  0  0  0  0  0  0  0  0  0  0
   33.6563   13.9002    4.5935 H   0  0  0  0  0  0  0  0  0  0  0  0
   34.2779   15.4180    5.2511 H   0  0  0  0  0  0  0  0  0  0  0  0
   29.8492   11.4951    8.4295 H   0  0  0  0  0  0  0  0  0  0  0  0
   30.4133    9.1163    8.9797 H   0  0  0  0  0  0  0  0  0  0  0  0
  1  2  1  0
  2  3  2  0
  2  4  1  0
  4  5  1  0
  5  6  2  0
  6  7  1  0
  7  8  1  0
  8  9  1  0
  9 10  1  0
 10 11  2  0
 10 12  1  0
 12 13  1  0
 13 14  1  0
 14 15  1  0
 15 16  1  0
 16 17  1  0
  7 18  2  0
 18 19  1  0
 19 20  2  0
 20 21  1  0
 20  5  1  0
 17 12  1  0
  1 22  1  0
  1 23  1  0
  1 24  1  0
  4 25  1  0
  6 26  1  0
  9 27  1  0
  9 28  1  0
 13 29  1  0
 13 30  1  0
 14 31  1  0
 14 32  1  0
 16 33  1  0
 16 34  1  0
 17 35  1  0
 17 36  1  0
 18 37  1  0
 19 38  1  0
M  END
