LIG
     RDKit          3D

 27 27  0  0  0  0  0  0  0  0999 V2000
   29.7213   16.3213    5.5382 N   0  0  0  0  0  0  0  0  0  0  0  0
   30.4320   15.5432    6.0277 C   0  0  0  0  0  0  0  0  0  0  0  0
   31.3403   14.6122    6.6901 C   0  0  0  0  0  0  0  0  0  0  0  0
   31.4126   13.2960    5.9795 C   0  0  0  0  0  0  0  0  0  0  0  0
   31.3830   13.1704    4.7635 O   0  0  0  0  0  0  0  0  0  0  0  0
   31.6082   12.2366    6.8374 N   0  0  0  0  0  0  0  0  0  0  0  0
   32.1312   11.0234    6.3996 C   0  0  0  0  0  0  0  0  0  0  0  0
   31.3908    9.8680    6.5538 C   0  0  0  0  0  0  0  0  0  0  0  0
   31.9995    8.6847    6.2273 C   0  0  0  0  0  0  0  0  0  0  0  0
   33.3001    8.5750    5.8903 N   0  0  0  0  0  0  0  0  0  0  0  0
   34.0244    9.7208    5.8442 C   0  0  0  0  0  0  0  0  0  0  0  0
   33.4772   10.9732    6.0433 C   0  0  0  0  0  0  0  0  0  0  0  0
   34.2471   12.1651    6.0062 N   0  0  0  0  0  0  0  0  0  0  0  0
   34.8708   12.5828    7.1841 C   0  0  0  0  0  0  0  0  0  0  0  0
   35.1707   11.8492    8.1190 O   0  0  0  0  0  0  0  0  0  0  0  0
   35.1317   14.0943    7.2378 C   0  0  0  0  0  0  0  0  0  0  0  0
   34.8271   14.7713    6.0263 O   0  0  0  0  0  0  0  0  0  0  0  0
   32.3464   15.0417    6.6645 H   0  0  0  0  0  0  0  0  0  0  0  0
   31.1390   14.4212    7.7420 H   0  0  0  0  0  0  0  0  0  0  0  0
   30.9870   12.1957    7.6255 H   0  0  0  0  0  0  0  0  0  0  0  0
   30.3666    9.8696    6.8856 H   0  0  0  0  0  0  0  0  0  0  0  0
   31.4274    7.7695    6.2096 H   0  0  0  0  0  0  0  0  0  0  0  0
   35.0789    9.5929    5.6216 H   0  0  0  0  0  0  0  0  0  0  0  0
   33.7673   12.9489    5.5684 H   0  0  0  0  0  0  0  0  0  0  0  0
   34.5043   14.5159    8.0285 H   0  0  0  0  0  0  0  0  0  0  0  0
   36.1840   14.2661    7.4831 H   0  0  0  0  0  0  0  0  0  0  0  0
   35.5493   14.5663    5.4033 H   0  0  0  0  0  0  0  0  0  0  0  0
  1  2  3  0
  2  3  1  0
  3  4  1  0
  4  5  2  0
  4  6  1  0
  6  7  1  0
  7  8  2  0
  8  9  1  0
  9 10  2  0
 10 11  1  0
 11 12  2  0
 12 13  1  0
 13 14  1  0
 14 15  2  0
 14 16  1  0
 16 17  1  0
 12  7  1  0
  3 18  1  0
  3 19  1  0
  6 20  1  0
  8 21  1  0
  9 22  1  0
 11 23  1  0
 13 24  1  0
 16 25  1  0
 16 26  1  0
 17 27  1  0
M  END
