LIG
     RDKit          3D

 45 47  0  0  0  0  0  0  0  0999 V2000
   31.1860    8.0690    8.4070 C   0  0  0  0  0  0  0  0  0  0  0  0
   31.7660    9.0980    7.4680 C   0  0  0  0  0  0  0  0  0  0  0  0
   31.3460   10.4150    7.4890 C   0  0  0  0  0  0  0  0  0  0  0  0
   31.8610   11.3420    6.6030 C   0  0  0  0  0  0  0  0  0  0  0  0
   32.8210   10.9050    5.6820 C   0  0  0  0  0  0  0  0  0  0  0  0
   33.3300   11.7430    4.6780 N   0  0  0  0  0  0  0  0  0  0  0  0
   33.5900   13.0680    4.7540 C   0  0  0  0  0  0  0  0  0  0  0  0
   33.4420   13.7460    5.7670 O   0  0  0  0  0  0  0  0  0  0  0  0
   34.1200   13.7080    3.4770 C   0  0  0  0  0  0  0  0  0  0  0  0
   33.0230   14.1560    2.5380 C   0  0  0  0  0  0  0  0  0  0  0  0
   33.7650   14.2490    1.2210 C   0  0  0  0  0  0  0  0  0  0  0  0
   34.7960   13.1450    1.3220 C   0  0  0  0  0  0  0  0  0  0  0  0
   34.9020   12.7780    2.7050 O   0  0  0  0  0  0  0  0  0  0  0  0
   33.2630    9.6380    5.6520 C   0  0  0  0  0  0  0  0  0  0  0  0
   31.4170   11.0938    7.0149 C   0  0  0  0  0  0  0  0  0  0  0  0
   30.9510   13.3300    7.5050 O   0  0  0  0  0  0  0  0  0  0  0  0
   30.0580   13.6540    8.5870 C   0  0  0  0  0  0  0  0  0  0  0  0
   28.5940   13.4330    8.1660 C   0  0  0  0  0  0  0  0  0  0  0  0
   27.8900   14.7750    8.3110 C   0  0  0  0  0  0  0  0  0  0  0  0
   28.8690   15.5850    9.0100 N   0  0  0  0  0  0  0  0  0  0  0  0
   28.4820   16.7650    9.7690 C   0  0  0  0  0  0  0  0  0  0  0  0
   30.1260   15.1410    8.9140 C   0  0  0  0  0  0  0  0  0  0  0  0
   31.1310   15.8110    9.0820 O   0  0  0  0  0  0  0  0  0  0  0  0
   31.9620    7.3749    8.7407 H   0  0  0  0  0  0  0  0  0  0  0  0
   30.3917    7.5130    7.9025 H   0  0  0  0  0  0  0  0  0  0  0  0
   31.3035    7.0589    8.0052 H   0  0  0  0  0  0  0  0  0  0  0  0
   30.5986   10.7453    8.2187 H   0  0  0  0  0  0  0  0  0  0  0  0
   31.5283   12.3571    6.6462 H   0  0  0  0  0  0  0  0  0  0  0  0
   33.5236   11.2718    3.7924 H   0  0  0  0  0  0  0  0  0  0  0  0
   33.1863   12.2145    3.0223 H   0  0  0  0  0  0  0  0  0  0  0  0
   32.1869   13.4597    2.4972 H   0  0  0  0  0  0  0  0  0  0  0  0
   32.6323   15.1387    2.8104 H   0  0  0  0  0  0  0  0  0  0  0  0
   34.2104   15.2367    1.0402 H   0  0  0  0  0  0  0  0  0  0  0  0
   33.0696   14.0376    0.3941 H   0  0  0  0  0  0  0  0  0  0  0  0
   35.7882   13.4880    0.9814 H   0  0  0  0  0  0  0  0  0  0  0  0
   34.5252   12.2586    0.7263 H   0  0  0  0  0  0  0  0  0  0  0  0
   33.4715    9.1173    4.7046 H   0  0  0  0  0  0  0  0  0  0  0  0
   30.2864   13.0976    9.4969 H   0  0  0  0  0  0  0  0  0  0  0  0
   28.5503   13.0898    7.1133 H   0  0  0  0  0  0  0  0  0  0  0  0
   28.1061   12.6382    8.7596 H   0  0  0  0  0  0  0  0  0  0  0  0
   26.9949   14.6975    8.9331 H   0  0  0  0  0  0  0  0  0  0  0  0
   27.6451   15.2204    7.3457 H   0  0  0  0  0  0  0  0  0  0  0  0
   28.7289   16.6033   10.8196 H   0  0  0  0  0  0  0  0  0  0  0  0
   29.3528   17.1930   10.2681 H   0  0  0  0  0  0  0  0  0  0  0  0
   29.0350   17.6224    9.3803 H   0  0  0  0  0  0  0  0  0  0  0  0
  1  2  1  0
  2  3  4  0
  3  4  4  0
  4  5  4  0
  5  6  1  0
  6  7  1  0
  7  8  2  0
  7  9  1  0
  9 10  1  0
 10 11  1  0
 11 12  1  0
 12 13  1  0
  5 14  4  0
 14 15  4  0
 15 16  1  0
 16 17  1  0
 17 18  1  0
 18 19  1  0
 19 20  1  0
 20 21  1  0
 20 22  1  0
 22 23  2  0
 15  2  4  0
 22 17  1  0
 13  9  1  0
  1 24  1  0
  1 25  1  0
  1 26  1  0
  3 27  1  0
  4 28  1  0
  6 29  1  0
  9 30  1  0
 10 31  1  0
 10 32  1  0
 11 33  1  0
 11 34  1  0
 12 35  1  0
 12 36  1  0
 14 37  1  0
 17 38  1  0
 18 39  1  0
 18 40  1  0
 19 41  1  0
 19 42  1  0
 21 43  1  0
 21 44  1  0
 21 45  1  0
M  END
$$$$
