LIG
     RDKit          3D

 45 47  0  0  0  0  0  0  0  0999 V2000
   -1.9107   -4.1863   -1.1221 C   0  0  0  0  0  0  0  0  0  0  0  0
   -0.8706   -3.1842   -0.7188 C   0  0  0  0  0  0  0  0  0  0  0  0
    0.4517   -3.3489   -1.1484 C   0  0  0  0  0  0  0  0  0  0  0  0
    1.4422   -2.4322   -0.7783 C   0  0  0  0  0  0  0  0  0  0  0  0
    1.1339   -1.3333    0.0307 C   0  0  0  0  0  0  0  0  0  0  0  0
    2.1860   -0.4634    0.3656 N   0  0  0  0  0  0  0  0  0  0  0  0
    2.1302    0.7108    1.0972 C   0  0  0  0  0  0  0  0  0  0  0  0
    1.1410    1.2074    1.6272 O   0  0  0  0  0  0  0  0  0  0  0  0
    3.5254    1.3446    1.2377 C   0  0  0  0  0  0  0  0  0  0  0  0
    3.4774    2.8630    1.1625 C   0  0  0  0  0  0  0  0  0  0  0  0
    4.8037    3.2007    0.5310 C   0  0  0  0  0  0  0  0  0  0  0  0
    4.9858    2.0542   -0.4351 C   0  0  0  0  0  0  0  0  0  0  0  0
    4.4338    0.8975    0.2088 O   0  0  0  0  0  0  0  0  0  0  0  0
   -0.1811   -1.1598    0.4540 C   0  0  0  0  0  0  0  0  0  0  0  0
   -1.1776   -2.0564    0.0494 C   0  0  0  0  0  0  0  0  0  0  0  0
   -2.4456   -1.8278    0.5114 O   0  0  0  0  0  0  0  0  0  0  0  0
   -3.2664   -1.1667   -0.4492 C   0  0  0  0  0  0  0  0  0  0  0  0
   -4.5177   -0.6999    0.3084 C   0  0  0  0  0  0  0  0  0  0  0  0
   -4.1249    0.6867    0.7868 C   0  0  0  0  0  0  0  0  0  0  0  0
   -3.3661    1.2029   -0.3208 N   0  0  0  0  0  0  0  0  0  0  0  0
   -2.8519    2.5514   -0.3299 C   0  0  0  0  0  0  0  0  0  0  0  0
   -2.7699    0.1693   -1.0428 C   0  0  0  0  0  0  0  0  0  0  0  0
   -1.9771    0.2977   -1.9636 O   0  0  0  0  0  0  0  0  0  0  0  0
   -1.4640   -5.1760   -1.2668 H   0  0  0  0  0  0  0  0  0  0  0  0
   -2.3860   -3.8790   -2.0584 H   0  0  0  0  0  0  0  0  0  0  0  0
   -2.6780   -4.2950   -0.3489 H   0  0  0  0  0  0  0  0  0  0  0  0
    0.7239   -4.1973   -1.7724 H   0  0  0  0  0  0  0  0  0  0  0  0
    2.4578   -2.5938   -1.1306 H   0  0  0  0  0  0  0  0  0  0  0  0
    3.1028   -0.6621   -0.0286 H   0  0  0  0  0  0  0  0  0  0  0  0
    3.9426    1.0157    2.1965 H   0  0  0  0  0  0  0  0  0  0  0  0
    2.6598    3.2013    0.5136 H   0  0  0  0  0  0  0  0  0  0  0  0
    3.3362    3.3284    2.1426 H   0  0  0  0  0  0  0  0  0  0  0  0
    4.8219    4.1791    0.0445 H   0  0  0  0  0  0  0  0  0  0  0  0
    5.5916    3.1776    1.2930 H   0  0  0  0  0  0  0  0  0  0  0  0
    4.4287    2.2216   -1.3635 H   0  0  0  0  0  0  0  0  0  0  0  0
    6.0352    1.8724   -0.6830 H   0  0  0  0  0  0  0  0  0  0  0  0
   -0.4680   -0.3260    1.0848 H   0  0  0  0  0  0  0  0  0  0  0  0
   -3.5591   -1.8530   -1.2509 H   0  0  0  0  0  0  0  0  0  0  0  0
   -5.3642   -0.6233   -0.3858 H   0  0  0  0  0  0  0  0  0  0  0  0
   -4.8017   -1.3525    1.1396 H   0  0  0  0  0  0  0  0  0  0  0  0
   -4.9935    1.3207    0.9851 H   0  0  0  0  0  0  0  0  0  0  0  0
   -3.4796    0.6450    1.6711 H   0  0  0  0  0  0  0  0  0  0  0  0
   -2.3843    2.7722   -1.2933 H   0  0  0  0  0  0  0  0  0  0  0  0
   -2.1003    2.6470    0.4591 H   0  0  0  0  0  0  0  0  0  0  0  0
   -3.6732    3.2497   -0.1502 H   0  0  0  0  0  0  0  0  0  0  0  0
  1  2  1  0
  2  3  2  0
  3  4  1  0
  4  5  2  0
  5  6  1  0
  6  7  1  0
  7  8  2  0
  7  9  1  0
  9 10  1  0
 10 11  1  0
 11 12  1  0
 12 13  1  0
  5 14  1  0
 14 15  2  0
 15 16  1  0
 16 17  1  0
 17 18  1  0
 18 19  1  0
 19 20  1  0
 20 21  1  0
 20 22  1  0
 22 23  2  0
 15  2  1  0
 22 17  1  0
 13  9  1  0
  1 24  1  0
  1 25  1  0
  1 26  1  0
  3 27  1  0
  4 28  1  0
  6 29  1  0
  9 30  1  0
 10 31  1  0
 10 32  1  0
 11 33  1  0
 11 34  1  0
 12 35  1  0
 12 36  1  0
 14 37  1  0
 17 38  1  0
 18 39  1  0
 18 40  1  0
 19 41  1  0
 19 42  1  0
 21 43  1  0
 21 44  1  0
 21 45  1  0
M  END
