LIG
     RDKit          3D

 27 27  0  0  0  0  0  0  0  0999 V2000
   34.2189   10.4789    3.5197 C   0  0  0  0  0  0  0  0  0  0  0  0
   34.1414   11.6583    4.4593 C   0  0  0  0  0  0  0  0  0  0  0  0
   35.1443   12.0356    5.0572 O   0  0  0  0  0  0  0  0  0  0  0  0
   32.8642   12.2173    4.5318 N   0  0  0  0  0  0  0  0  0  0  0  0
   32.1331   12.5851    5.7069 C   0  0  0  0  0  0  0  0  0  0  0  0
   30.7534   12.7973    5.6268 C   0  0  0  0  0  0  0  0  0  0  0  0
   29.9214   12.5865    6.7213 C   0  0  0  0  0  0  0  0  0  0  0  0
   30.4906   12.4050    7.9558 C   0  0  0  0  0  0  0  0  0  0  0  0
   31.8556   12.5947    8.0751 C   0  0  0  0  0  0  0  0  0  0  0  0
   32.6752   12.6883    6.9634 C   0  0  0  0  0  0  0  0  0  0  0  0
   33.9742   13.1315    7.0440 N   0  0  0  0  0  0  0  0  0  0  0  0
   34.7048   13.4361    8.1510 C   0  0  0  0  0  0  0  0  0  0  0  0
   34.4152   13.1457    9.3055 O   0  0  0  0  0  0  0  0  0  0  0  0
   35.9457   14.2071    7.7713 C   0  0  0  0  0  0  0  0  0  0  0  0
   36.1386   14.3213    6.3632 O   0  0  0  0  0  0  0  0  0  0  0  0
   34.0025    9.5631    4.0759 H   0  0  0  0  0  0  0  0  0  0  0  0
   35.2263   10.4188    3.0977 H   0  0  0  0  0  0  0  0  0  0  0  0
   33.5124   10.5838    2.6922 H   0  0  0  0  0  0  0  0  0  0  0  0
   32.3051   12.0949    3.7007 H   0  0  0  0  0  0  0  0  0  0  0  0
   30.2868   13.0571    4.6801 H   0  0  0  0  0  0  0  0  0  0  0  0
   28.8419   12.6211    6.6163 H   0  0  0  0  0  0  0  0  0  0  0  0
   29.8668   12.3076    8.8366 H   0  0  0  0  0  0  0  0  0  0  0  0
   32.2508   12.7946    9.0554 H   0  0  0  0  0  0  0  0  0  0  0  0
   34.4496   13.3228    6.1624 H   0  0  0  0  0  0  0  0  0  0  0  0
   36.8222   13.7220    8.2103 H   0  0  0  0  0  0  0  0  0  0  0  0
   35.8358   15.2072    8.1811 H   0  0  0  0  0  0  0  0  0  0  0  0
   36.3500   13.4197    6.0402 H   0  0  0  0  0  0  0  0  0  0  0  0
  1  2  1  0
  2  3  2  0
  2  4  1  0
  4  5  1  0
  5  6  2  0
  6  7  1  0
  7  8  2  0
  8  9  1  0
  9 10  2  0
 10 11  1  0
 11 12  1  0
 12 13  2  0
 12 14  1  0
 14 15  1  0
 10  5  1  0
  1 16  1  0
  1 17  1  0
  1 18  1  0
  4 19  1  0
  6 20  1  0
  7 21  1  0
  8 22  1  0
  9 23  1  0
 11 24  1  0
 14 25  1  0
 14 26  1  0
 15 27  1  0
M  END
