LIG
     RDKit          3D

 35 36  0  0  0  0  0  0  0  0999 V2000
   28.4165   15.9218    8.0331 N   0  0  0  0  0  0  0  0  0  0  0  0
   28.6394   14.8209    8.3079 C   0  0  0  0  0  0  0  0  0  0  0  0
   28.9249   13.4763    8.7720 C   0  0  0  0  0  0  0  0  0  0  0  0
   29.5550   12.6586    7.6891 C   0  0  0  0  0  0  0  0  0  0  0  0
   29.4388   12.9262    6.4955 O   0  0  0  0  0  0  0  0  0  0  0  0
   30.2612   11.5763    8.1850 N   0  0  0  0  0  0  0  0  0  0  0  0
   31.2494   10.9347    7.4309 C   0  0  0  0  0  0  0  0  0  0  0  0
   31.4764    9.5823    7.5956 C   0  0  0  0  0  0  0  0  0  0  0  0
   32.4321    8.9701    6.7924 C   0  0  0  0  0  0  0  0  0  0  0  0
   33.1774    9.6884    5.8529 C   0  0  0  0  0  0  0  0  0  0  0  0
   32.9654   11.0534    5.7116 C   0  0  0  0  0  0  0  0  0  0  0  0
   33.6202   11.7427    4.6813 N   0  0  0  0  0  0  0  0  0  0  0  0
   33.4883   13.0936    4.3888 C   0  0  0  0  0  0  0  0  0  0  0  0
   33.1335   13.9821    5.1581 O   0  0  0  0  0  0  0  0  0  0  0  0
   33.6799   13.3316    2.8904 C   0  0  0  0  0  0  0  0  0  0  0  0
   33.9000   14.7812    2.5162 C   0  0  0  0  0  0  0  0  0  0  0  0
   34.5815   14.6376    1.1802 C   0  0  0  0  0  0  0  0  0  0  0  0
   35.4591   13.4244    1.4066 C   0  0  0  0  0  0  0  0  0  0  0  0
   34.7642   12.5747    2.3328 O   0  0  0  0  0  0  0  0  0  0  0  0
   32.0162   11.6663    6.5212 C   0  0  0  0  0  0  0  0  0  0  0  0
   28.0156   12.9800    9.1097 H   0  0  0  0  0  0  0  0  0  0  0  0
   29.6214   13.5571    9.6114 H   0  0  0  0  0  0  0  0  0  0  0  0
   29.8926   11.1069    9.0101 H   0  0  0  0  0  0  0  0  0  0  0  0
   30.9054    8.9820    8.2990 H   0  0  0  0  0  0  0  0  0  0  0  0
   32.5995    7.9114    6.9224 H   0  0  0  0  0  0  0  0  0  0  0  0
   33.9072    9.1615    5.2434 H   0  0  0  0  0  0  0  0  0  0  0  0
   34.1853   11.2112    4.0244 H   0  0  0  0  0  0  0  0  0  0  0  0
   32.7652   12.9695    2.4013 H   0  0  0  0  0  0  0  0  0  0  0  0
   32.9709   15.3568    2.4705 H   0  0  0  0  0  0  0  0  0  0  0  0
   34.5702   15.2763    3.2295 H   0  0  0  0  0  0  0  0  0  0  0  0
   33.8375   14.4226    0.4039 H   0  0  0  0  0  0  0  0  0  0  0  0
   35.1471   15.5226    0.8775 H   0  0  0  0  0  0  0  0  0  0  0  0
   35.6624   12.8744    0.4836 H   0  0  0  0  0  0  0  0  0  0  0  0
   36.4136   13.7055    1.8643 H   0  0  0  0  0  0  0  0  0  0  0  0
   31.8370   12.7306    6.4317 H   0  0  0  0  0  0  0  0  0  0  0  0
  1  2  3  0
  2  3  1  0
  3  4  1  0
  4  5  2  0
  4  6  1  0
  6  7  1  0
  7  8  2  0
  8  9  1  0
  9 10  2  0
 10 11  1  0
 11 12  1  0
 12 13  1  0
 13 14  2  0
 13 15  1  0
 15 16  1  0
 16 17  1  0
 17 18  1  0
 18 19  1  0
 11 20  2  0
 20  7  1  0
 19 15  1  0
  3 21  1  0
  3 22  1  0
  6 23  1  0
  8 24  1  0
  9 25  1  0
 10 26  1  0
 12 27  1  0
 15 28  1  0
 16 29  1  0
 16 30  1  0
 17 31  1  0
 17 32  1  0
 18 33  1  0
 18 34  1  0
 20 35  1  0
M  END
