LIG
     RDKit          3D

 45 46  0  0  0  0  0  0  0  0999 V2000
   -5.7179    0.4911    1.3498 C   0  0  0  0  0  0  0  0  0  0  0  0
   -6.3269    0.4150    0.0302 N   0  0  0  0  0  0  0  0  0  0  0  0
   -7.7737    0.2828    0.0015 C   0  0  0  0  0  0  0  0  0  0  0  0
   -5.6163    0.0896   -1.1255 C   0  0  0  0  0  0  0  0  0  0  0  0
   -6.1798   -0.1315   -2.2016 O   0  0  0  0  0  0  0  0  0  0  0  0
   -4.0866    0.0641   -1.0515 C   0  0  0  0  0  0  0  0  0  0  0  0
   -3.6443   -0.9397   -0.1474 O   0  0  0  0  0  0  0  0  0  0  0  0
   -2.3028   -0.9932    0.1154 C   0  0  0  0  0  0  0  0  0  0  0  0
   -1.3063   -0.3278   -0.6020 C   0  0  0  0  0  0  0  0  0  0  0  0
    0.0447   -0.4646   -0.2491 C   0  0  0  0  0  0  0  0  0  0  0  0
    0.9066    0.2478   -1.0366 O   0  0  0  0  0  0  0  0  0  0  0  0
    2.2943   -0.0441   -0.9517 C   0  0  0  0  0  0  0  0  0  0  0  0
    3.0668    0.6794    0.1665 C   0  0  0  0  0  0  0  0  0  0  0  0
    2.4897    1.3278    1.0403 O   0  0  0  0  0  0  0  0  0  0  0  0
    4.4512    0.5577    0.1490 N   0  0  0  0  0  0  0  0  0  0  0  0
    5.2487    1.2820    1.1428 C   0  0  0  0  0  0  0  0  0  0  0  0
    6.5899    1.7237    0.5494 C   0  0  0  0  0  0  0  0  0  0  0  0
    7.3826    0.6446    0.0317 O   0  0  0  0  0  0  0  0  0  0  0  0
    6.6280   -0.5162   -0.3349 C   0  0  0  0  0  0  0  0  0  0  0  0
    5.2223   -0.1894   -0.8494 C   0  0  0  0  0  0  0  0  0  0  0  0
    0.3982   -1.2620    0.8404 C   0  0  0  0  0  0  0  0  0  0  0  0
   -0.5912   -1.9347    1.5592 C   0  0  0  0  0  0  0  0  0  0  0  0
   -1.9259   -1.8003    1.1909 C   0  0  0  0  0  0  0  0  0  0  0  0
   -2.8577   -2.4508    1.9045 F   0  0  0  0  0  0  0  0  0  0  0  0
   -4.7120    0.9121    1.3023 H   0  0  0  0  0  0  0  0  0  0  0  0
   -5.6737   -0.5158    1.7749 H   0  0  0  0  0  0  0  0  0  0  0  0
   -6.3238    1.1351    1.9941 H   0  0  0  0  0  0  0  0  0  0  0  0
   -8.1696    0.3669   -1.0141 H   0  0  0  0  0  0  0  0  0  0  0  0
   -8.2201    1.0707    0.6151 H   0  0  0  0  0  0  0  0  0  0  0  0
   -8.0432   -0.6971    0.4069 H   0  0  0  0  0  0  0  0  0  0  0  0
   -3.7430    1.0622   -0.7538 H   0  0  0  0  0  0  0  0  0  0  0  0
   -3.7177   -0.1596   -2.0601 H   0  0  0  0  0  0  0  0  0  0  0  0
   -1.5433    0.3021   -1.4536 H   0  0  0  0  0  0  0  0  0  0  0  0
    2.7228    0.2903   -1.9036 H   0  0  0  0  0  0  0  0  0  0  0  0
    2.4637   -1.1254   -0.8885 H   0  0  0  0  0  0  0  0  0  0  0  0
    5.4135    0.5884    1.9755 H   0  0  0  0  0  0  0  0  0  0  0  0
    4.6994    2.1487    1.5236 H   0  0  0  0  0  0  0  0  0  0  0  0
    6.4233    2.4282   -0.2737 H   0  0  0  0  0  0  0  0  0  0  0  0
    7.1890    2.2396    1.3062 H   0  0  0  0  0  0  0  0  0  0  0  0
    6.5703   -1.1680    0.5448 H   0  0  0  0  0  0  0  0  0  0  0  0
    7.1965   -1.0517   -1.1017 H   0  0  0  0  0  0  0  0  0  0  0  0
    4.6962   -1.1088   -1.1190 H   0  0  0  0  0  0  0  0  0  0  0  0
    5.2846    0.4492   -1.7379 H   0  0  0  0  0  0  0  0  0  0  0  0
    1.4259   -1.3639    1.1714 H   0  0  0  0  0  0  0  0  0  0  0  0
   -0.3324   -2.5545    2.4119 H   0  0  0  0  0  0  0  0  0  0  0  0
  1  2  1  0
  2  3  1  0
  2  4  1  0
  4  5  2  0
  4  6  1  0
  6  7  1  0
  7  8  1  0
  8  9  2  0
  9 10  1  0
 10 11  1  0
 11 12  1  0
 12 13  1  0
 13 14  2  0
 13 15  1  0
 15 16  1  0
 16 17  1  0
 17 18  1  0
 18 19  1  0
 19 20  1  0
 10 21  2  0
 21 22  1  0
 22 23  2  0
 23 24  1  0
 23  8  1  0
 20 15  1  0
  1 25  1  0
  1 26  1  0
  1 27  1  0
  3 28  1  0
  3 29  1  0
  3 30  1  0
  6 31  1  0
  6 32  1  0
  9 33  1  0
 12 34  1  0
 12 35  1  0
 16 36  1  0
 16 37  1  0
 17 38  1  0
 17 39  1  0
 19 40  1  0
 19 41  1  0
 20 42  1  0
 20 43  1  0
 21 44  1  0
 22 45  1  0
M  END
