LIG
     RDKit          3D

 34 34  0  0  0  0  0  0  0  0999 V2000
   30.8177   15.6840   11.3662 C   0  0  0  0  0  0  0  0  0  0  0  0
   29.8106   14.9861   10.5834 N   0  0  0  0  0  0  0  0  0  0  0  0
   28.5862   14.6617   11.2601 C   0  0  0  0  0  0  0  0  0  0  0  0
   30.2983   14.1134    9.6161 C   0  0  0  0  0  0  0  0  0  0  0  0
   31.5152   14.0264    9.4645 O   0  0  0  0  0  0  0  0  0  0  0  0
   29.2882   13.3829    8.6879 C   0  0  0  0  0  0  0  0  0  0  0  0
   29.4251   11.9978    8.4264 O   0  0  0  0  0  0  0  0  0  0  0  0
   30.5254   11.5458    7.7692 C   0  0  0  0  0  0  0  0  0  0  0  0
   30.7000   10.1626    7.7264 C   0  0  0  0  0  0  0  0  0  0  0  0
   31.7706    9.5992    7.0248 C   0  0  0  0  0  0  0  0  0  0  0  0
   32.7283   10.4171    6.4322 C   0  0  0  0  0  0  0  0  0  0  0  0
   32.6241   11.7877    6.6169 C   0  0  0  0  0  0  0  0  0  0  0  0
   33.7220   12.6304    6.3874 N   0  0  0  0  0  0  0  0  0  0  0  0
   34.2747   13.3076    7.4775 C   0  0  0  0  0  0  0  0  0  0  0  0
   33.9902   13.0662    8.6547 O   0  0  0  0  0  0  0  0  0  0  0  0
   35.3072   14.3649    7.1590 C   0  0  0  0  0  0  0  0  0  0  0  0
   35.6021   14.6111    5.3916 S   0  0  0  0  0  0  0  0  0  0  0  0
   31.4802   12.3497    7.1776 C   0  0  0  0  0  0  0  0  0  0  0  0
   31.6521   16.0143   10.7425 H   0  0  0  0  0  0  0  0  0  0  0  0
   31.1920   15.0050   12.1220 H   0  0  0  0  0  0  0  0  0  0  0  0
   30.3941   16.5599   11.8576 H   0  0  0  0  0  0  0  0  0  0  0  0
   27.7474   14.9009   10.6047 H   0  0  0  0  0  0  0  0  0  0  0  0
   28.5195   15.2215   12.1935 H   0  0  0  0  0  0  0  0  0  0  0  0
   28.5394   13.6068   11.5071 H   0  0  0  0  0  0  0  0  0  0  0  0
   29.2630   13.9383    7.7403 H   0  0  0  0  0  0  0  0  0  0  0  0
   28.2779   13.4961    9.0846 H   0  0  0  0  0  0  0  0  0  0  0  0
   29.9857    9.5060    8.2183 H   0  0  0  0  0  0  0  0  0  0  0  0
   31.8829    8.5179    6.9990 H   0  0  0  0  0  0  0  0  0  0  0  0
   33.6035    9.9713    5.9698 H   0  0  0  0  0  0  0  0  0  0  0  0
   34.4460   12.3117    5.7511 H   0  0  0  0  0  0  0  0  0  0  0  0
   34.9569   15.3041    7.5880 H   0  0  0  0  0  0  0  0  0  0  0  0
   36.2469   14.0767    7.6373 H   0  0  0  0  0  0  0  0  0  0  0  0
   35.5946   15.9606    5.4204 H   0  0  0  0  0  0  0  0  0  0  0  0
   31.4193   13.4287    7.2086 H   0  0  0  0  0  0  0  0  0  0  0  0
  1  2  1  0
  2  3  1  0
  2  4  1  0
  4  5  2  0
  4  6  1  0
  6  7  1  0
  7  8  1  0
  8  9  2  0
  9 10  1  0
 10 11  2  0
 11 12  1  0
 12 13  1  0
 13 14  1  0
 14 15  2  0
 14 16  1  0
 16 17  1  0
 12 18  2  0
 18  8  1  0
  1 19  1  0
  1 20  1  0
  1 21  1  0
  3 22  1  0
  3 23  1  0
  3 24  1  0
  6 25  1  0
  6 26  1  0
  9 27  1  0
 10 28  1  0
 11 29  1  0
 13 30  1  0
 16 31  1  0
 16 32  1  0
 17 33  1  0
 18 34  1  0
M  END
