LIG
     RDKit          3D

 36 36  0  0  0  0  0  0  0  0999 V2000
   34.9450   11.2115    4.9389 C   0  0  0  0  0  0  0  0  0  0  0  0
   33.5804   11.4280    5.4962 C   0  0  0  0  0  0  0  0  0  0  0  0
   32.6596   10.4310    5.3963 C   0  0  0  0  0  0  0  0  0  0  0  0
   31.3997   10.5377    5.8596 N   0  0  0  0  0  0  0  0  0  0  0  0
   31.0439   11.6451    6.5240 C   0  0  0  0  0  0  0  0  0  0  0  0
   29.8800   11.5302    7.2222 O   0  0  0  0  0  0  0  0  0  0  0  0
   30.2345   10.8834    8.4329 C   0  0  0  0  0  0  0  0  0  0  0  0
   31.1188    9.6836    8.3165 C   0  0  0  0  0  0  0  0  0  0  0  0
   32.3032    9.8660    8.0383 O   0  0  0  0  0  0  0  0  0  0  0  0
   30.6691    8.4189    8.3416 N   0  0  0  0  0  0  0  0  0  0  0  0
   31.4788    7.6871    7.4587 C   0  0  0  0  0  0  0  0  0  0  0  0
   29.3208    8.0283    8.5342 C   0  0  0  0  0  0  0  0  0  0  0  0
   31.8684   12.7032    6.7053 C   0  0  0  0  0  0  0  0  0  0  0  0
   33.1437   12.5629    6.1765 C   0  0  0  0  0  0  0  0  0  0  0  0
   34.0407   13.5742    6.4380 N   0  0  0  0  0  0  0  0  0  0  0  0
   34.4576   13.7564    7.7508 C   0  0  0  0  0  0  0  0  0  0  0  0
   33.9352   13.3175    8.7708 O   0  0  0  0  0  0  0  0  0  0  0  0
   35.7322   14.5491    7.7302 C   0  0  0  0  0  0  0  0  0  0  0  0
   35.9447   15.1272    6.4369 O   0  0  0  0  0  0  0  0  0  0  0  0
   35.0032   11.6344    3.9308 H   0  0  0  0  0  0  0  0  0  0  0  0
   35.1904   10.1456    4.8780 H   0  0  0  0  0  0  0  0  0  0  0  0
   35.7190   11.6788    5.5531 H   0  0  0  0  0  0  0  0  0  0  0  0
   32.9251    9.4698    4.9718 H   0  0  0  0  0  0  0  0  0  0  0  0
   29.3543   10.6323    8.9659 H   0  0  0  0  0  0  0  0  0  0  0  0
   30.7411   11.6330    9.0355 H   0  0  0  0  0  0  0  0  0  0  0  0
   31.6401    8.2123    6.5239 H   0  0  0  0  0  0  0  0  0  0  0  0
   32.4707    7.6103    7.8778 H   0  0  0  0  0  0  0  0  0  0  0  0
   31.0137    6.7581    7.2723 H   0  0  0  0  0  0  0  0  0  0  0  0
   29.0650    8.4334    9.5046 H   0  0  0  0  0  0  0  0  0  0  0  0
   28.6960    8.4553    7.7606 H   0  0  0  0  0  0  0  0  0  0  0  0
   29.2202    6.9542    8.5645 H   0  0  0  0  0  0  0  0  0  0  0  0
   31.5750   13.5490    7.3087 H   0  0  0  0  0  0  0  0  0  0  0  0
   34.8305   13.6944    5.8024 H   0  0  0  0  0  0  0  0  0  0  0  0
   36.5621   13.8684    7.9404 H   0  0  0  0  0  0  0  0  0  0  0  0
   35.6914   15.3185    8.4884 H   0  0  0  0  0  0  0  0  0  0  0  0
   35.4563   15.9804    6.4033 H   0  0  0  0  0  0  0  0  0  0  0  0
  1  2  1  0
  2  3  2  0
  3  4  1  0
  4  5  2  0
  5  6  1  0
  6  7  1  0
  7  8  1  0
  8  9  2  0
  8 10  1  0
 10 11  1  0
 10 12  1  0
  5 13  1  0
 13 14  2  0
 14 15  1  0
 15 16  1  0
 16 17  2  0
 16 18  1  0
 18 19  1  0
 14  2  1  0
  1 20  1  0
  1 21  1  0
  1 22  1  0
  3 23  1  0
  7 24  1  0
  7 25  1  0
 11 26  1  0
 11 27  1  0
 11 28  1  0
 12 29  1  0
 12 30  1  0
 12 31  1  0
 13 32  1  0
 15 33  1  0
 18 34  1  0
 18 35  1  0
 19 36  1  0
M  END
