LIG
     RDKit          3D

 44 45  0  0  0  0  0  0  0  0999 V2000
   30.4201    9.6876    8.2252 C   0  0  0  0  0  0  0  0  0  0  0  0
   30.8972   10.8869    7.4763 C   0  0  0  0  0  0  0  0  0  0  0  0
   30.2601   11.7010    6.5711 C   0  0  0  0  0  0  0  0  0  0  0  0
   31.0529   12.5467    5.7657 C   0  0  0  0  0  0  0  0  0  0  0  0
   32.4410   12.3885    5.7856 C   0  0  0  0  0  0  0  0  0  0  0  0
   33.3320   12.8980    4.8467 N   0  0  0  0  0  0  0  0  0  0  0  0
   33.0787   13.9660    4.0332 C   0  0  0  0  0  0  0  0  0  0  0  0
   32.0759   14.6728    4.1053 O   0  0  0  0  0  0  0  0  0  0  0  0
   34.2117   14.2533    3.0492 C   0  0  0  0  0  0  0  0  0  0  0  0
   33.6604   14.8568    1.7662 C   0  0  0  0  0  0  0  0  0  0  0  0
   34.5897   14.3079    0.7181 C   0  0  0  0  0  0  0  0  0  0  0  0
   34.8883   12.9300    1.2576 C   0  0  0  0  0  0  0  0  0  0  0  0
   34.9317   13.0603    2.6834 O   0  0  0  0  0  0  0  0  0  0  0  0
   32.9831   11.7381    6.8589 C   0  0  0  0  0  0  0  0  0  0  0  0
   32.0681   11.4623    7.8485 C   0  0  0  0  0  0  0  0  0  0  0  0
   31.9871   12.5635    8.7255 O   0  0  0  0  0  0  0  0  0  0  0  0
   30.7150   13.2553    8.8486 C   0  0  0  0  0  0  0  0  0  0  0  0
   30.8447   14.2189    9.9924 C   0  0  0  0  0  0  0  0  0  0  0  0
   31.9554   14.4693   10.4649 O   0  0  0  0  0  0  0  0  0  0  0  0
   29.6969   14.8193   10.4753 N   0  0  0  0  0  0  0  0  0  0  0  0
   29.8322   15.3056   11.8247 C   0  0  0  0  0  0  0  0  0  0  0  0
   28.3621   14.4568   10.0413 C   0  0  0  0  0  0  0  0  0  0  0  0
   29.4913    9.2806    7.8310 H   0  0  0  0  0  0  0  0  0  0  0  0
   31.1683    8.8895    8.1606 H   0  0  0  0  0  0  0  0  0  0  0  0
   30.2636    9.9251    9.2774 H   0  0  0  0  0  0  0  0  0  0  0  0
   29.1805   11.7321    6.4798 H   0  0  0  0  0  0  0  0  0  0  0  0
   30.5560   13.1975    5.0527 H   0  0  0  0  0  0  0  0  0  0  0  0
   34.2984   12.5843    4.8775 H   0  0  0  0  0  0  0  0  0  0  0  0
   34.9222   14.9327    3.5336 H   0  0  0  0  0  0  0  0  0  0  0  0
   32.6379   14.5138    1.5642 H   0  0  0  0  0  0  0  0  0  0  0  0
   33.6408   15.9506    1.7929 H   0  0  0  0  0  0  0  0  0  0  0  0
   34.1594   14.2914   -0.2865 H   0  0  0  0  0  0  0  0  0  0  0  0
   35.5082   14.9060    0.6906 H   0  0  0  0  0  0  0  0  0  0  0  0
   34.0907   12.2220    1.0071 H   0  0  0  0  0  0  0  0  0  0  0  0
   35.8389   12.5303    0.8942 H   0  0  0  0  0  0  0  0  0  0  0  0
   34.0240   11.9255    7.0902 H   0  0  0  0  0  0  0  0  0  0  0  0
   30.5423   13.8762    7.9656 H   0  0  0  0  0  0  0  0  0  0  0  0
   29.8935   12.5651    9.0259 H   0  0  0  0  0  0  0  0  0  0  0  0
   28.8908   15.6833   12.2134 H   0  0  0  0  0  0  0  0  0  0  0  0
   30.6073   16.0765   11.8615 H   0  0  0  0  0  0  0  0  0  0  0  0
   30.1097   14.4627   12.4563 H   0  0  0  0  0  0  0  0  0  0  0  0
   28.0068   13.6387   10.6686 H   0  0  0  0  0  0  0  0  0  0  0  0
   28.3534   14.1448    8.9946 H   0  0  0  0  0  0  0  0  0  0  0  0
   27.6935   15.3096   10.1278 H   0  0  0  0  0  0  0  0  0  0  0  0
  1  2  1  0
  2  3  2  0
  3  4  1  0
  4  5  2  0
  5  6  1  0
  6  7  1  0
  7  8  2  0
  7  9  1  0
  9 10  1  0
 10 11  1  0
 11 12  1  0
 12 13  1  0
  5 14  1  0
 14 15  2  0
 15 16  1  0
 16 17  1  0
 17 18  1  0
 18 19  2  0
 18 20  1  0
 20 21  1  0
 20 22  1  0
 15  2  1  0
 13  9  1  0
  1 23  1  0
  1 24  1  0
  1 25  1  0
  3 26  1  0
  4 27  1  0
  6 28  1  0
  9 29  1  0
 10 30  1  0
 10 31  1  0
 11 32  1  0
 11 33  1  0
 12 34  1  0
 12 35  1  0
 14 36  1  0
 17 37  1  0
 17 38  1  0
 21 39  1  0
 21 40  1  0
 21 41  1  0
 22 42  1  0
 22 43  1  0
 22 44  1  0
M  END
