LIG
     RDKit          3D

 33 33  0  0  0  0  0  0  0  0999 V2000
    5.3914    1.3568    0.2315 C   0  0  0  0  0  0  0  0  0  0  0  0
    4.0452    0.8728   -0.0282 N   0  0  0  0  0  0  0  0  0  0  0  0
    3.8983   -0.5697   -0.1506 C   0  0  0  0  0  0  0  0  0  0  0  0
    2.9798    1.7411    0.2049 C   0  0  0  0  0  0  0  0  0  0  0  0
    3.1491    2.9376    0.4562 O   0  0  0  0  0  0  0  0  0  0  0  0
    1.5562    1.1890    0.0882 C   0  0  0  0  0  0  0  0  0  0  0  0
    1.3185    0.1861    1.0674 O   0  0  0  0  0  0  0  0  0  0  0  0
    0.0990   -0.4260    1.0506 C   0  0  0  0  0  0  0  0  0  0  0  0
   -0.0586   -1.4877    1.9323 C   0  0  0  0  0  0  0  0  0  0  0  0
   -1.1887   -2.2191    2.0499 N   0  0  0  0  0  0  0  0  0  0  0  0
   -2.2281   -1.8673    1.2531 C   0  0  0  0  0  0  0  0  0  0  0  0
   -2.1864   -0.8161    0.3406 C   0  0  0  0  0  0  0  0  0  0  0  0
   -3.2562   -0.4231   -0.4952 N   0  0  0  0  0  0  0  0  0  0  0  0
   -4.5098   -1.0145   -0.5695 C   0  0  0  0  0  0  0  0  0  0  0  0
   -4.8818   -1.9896    0.0743 O   0  0  0  0  0  0  0  0  0  0  0  0
   -5.4325   -0.3190   -1.5572 C   0  0  0  0  0  0  0  0  0  0  0  0
   -6.2364    1.1059   -0.7727 S   0  0  0  0  0  0  0  0  0  0  0  0
   -0.9909   -0.0891    0.2479 C   0  0  0  0  0  0  0  0  0  0  0  0
    6.0743    0.9389   -0.5139 H   0  0  0  0  0  0  0  0  0  0  0  0
    5.4489    2.4474    0.1830 H   0  0  0  0  0  0  0  0  0  0  0  0
    5.6930    1.0300    1.2312 H   0  0  0  0  0  0  0  0  0  0  0  0
    4.7256   -0.9709   -0.7436 H   0  0  0  0  0  0  0  0  0  0  0  0
    3.9170   -1.0099    0.8505 H   0  0  0  0  0  0  0  0  0  0  0  0
    2.9647   -0.8374   -0.6485 H   0  0  0  0  0  0  0  0  0  0  0  0
    0.8701    2.0304    0.2463 H   0  0  0  0  0  0  0  0  0  0  0  0
    1.4219    0.8017   -0.9289 H   0  0  0  0  0  0  0  0  0  0  0  0
    0.7526   -1.7898    2.5893 H   0  0  0  0  0  0  0  0  0  0  0  0
   -3.1080   -2.4853    1.3976 H   0  0  0  0  0  0  0  0  0  0  0  0
   -3.0869    0.3746   -1.0958 H   0  0  0  0  0  0  0  0  0  0  0  0
   -6.1897   -1.0274   -1.9062 H   0  0  0  0  0  0  0  0  0  0  0  0
   -4.8632    0.0164   -2.4298 H   0  0  0  0  0  0  0  0  0  0  0  0
   -5.1597    1.5741   -0.1246 H   0  0  0  0  0  0  0  0  0  0  0  0
   -0.9289    0.7389   -0.4487 H   0  0  0  0  0  0  0  0  0  0  0  0
  1  2  1  0
  2  3  1  0
  2  4  1  0
  4  5  2  0
  4  6  1  0
  6  7  1  0
  7  8  1  0
  8  9  2  0
  9 10  1  0
 10 11  2  0
 11 12  1  0
 12 13  1  0
 13 14  1  0
 14 15  2  0
 14 16  1  0
 16 17  1  0
 12 18  2  0
 18  8  1  0
  1 19  1  0
  1 20  1  0
  1 21  1  0
  3 22  1  0
  3 23  1  0
  3 24  1  0
  6 25  1  0
  6 26  1  0
  9 27  1  0
 11 28  1  0
 13 29  1  0
 16 30  1  0
 16 31  1  0
 17 32  1  0
 18 33  1  0
M  END
