LIG
     RDKit          3D

 45 46  0  0  0  0  0  0  0  0999 V2000
   28.5516   14.6544   10.9457 C   0  0  0  0  0  0  0  0  0  0  0  0
   29.8723   14.8331   10.3968 N   0  0  0  0  0  0  0  0  0  0  0  0
   30.8375   15.5328   11.2285 C   0  0  0  0  0  0  0  0  0  0  0  0
   30.3934   13.8767    9.5230 C   0  0  0  0  0  0  0  0  0  0  0  0
   31.6099   13.6977    9.4715 O   0  0  0  0  0  0  0  0  0  0  0  0
   29.4136   13.1120    8.6001 C   0  0  0  0  0  0  0  0  0  0  0  0
   29.5086   11.6964    8.5717 O   0  0  0  0  0  0  0  0  0  0  0  0
   30.5525   11.0689    7.9692 C   0  0  0  0  0  0  0  0  0  0  0  0
   31.3183   11.6776    6.9888 C   0  0  0  0  0  0  0  0  0  0  0  0
   32.3424   10.9950    6.3376 C   0  0  0  0  0  0  0  0  0  0  0  0
   33.1617   11.5289    5.3876 O   0  0  0  0  0  0  0  0  0  0  0  0
   32.9232   12.8647    4.9560 C   0  0  0  0  0  0  0  0  0  0  0  0
   33.4803   13.8492    5.9628 C   0  0  0  0  0  0  0  0  0  0  0  0
   33.0108   13.8891    7.1014 O   0  0  0  0  0  0  0  0  0  0  0  0
   34.5326   14.6614    5.6157 N   0  0  0  0  0  0  0  0  0  0  0  0
   35.4747   14.8880    6.7077 C   0  0  0  0  0  0  0  0  0  0  0  0
   36.5491   13.8045    6.5860 C   0  0  0  0  0  0  0  0  0  0  0  0
   37.2743   14.0022    5.3537 O   0  0  0  0  0  0  0  0  0  0  0  0
   36.3923   13.8103    4.2306 C   0  0  0  0  0  0  0  0  0  0  0  0
   35.1817   14.7492    4.3024 C   0  0  0  0  0  0  0  0  0  0  0  0
   32.5536    9.6514    6.6197 C   0  0  0  0  0  0  0  0  0  0  0  0
   31.7719    9.0158    7.5811 C   0  0  0  0  0  0  0  0  0  0  0  0
   30.8042    9.7289    8.2753 C   0  0  0  0  0  0  0  0  0  0  0  0
   30.1415    9.0913    9.2516 F   0  0  0  0  0  0  0  0  0  0  0  0
   28.3016   13.6029   11.0723 H   0  0  0  0  0  0  0  0  0  0  0  0
   28.4946   15.1234   11.9294 H   0  0  0  0  0  0  0  0  0  0  0  0
   27.8296   15.0959   10.2550 H   0  0  0  0  0  0  0  0  0  0  0  0
   31.7755   15.7061   10.6955 H   0  0  0  0  0  0  0  0  0  0  0  0
   30.4538   16.4954   11.5613 H   0  0  0  0  0  0  0  0  0  0  0  0
   31.0317   14.9219   12.1035 H   0  0  0  0  0  0  0  0  0  0  0  0
   29.4811   13.5465    7.5961 H   0  0  0  0  0  0  0  0  0  0  0  0
   28.3822   13.3238    8.8899 H   0  0  0  0  0  0  0  0  0  0  0  0
   31.1025   12.6998    6.7275 H   0  0  0  0  0  0  0  0  0  0  0  0
   31.8658   13.0779    4.7663 H   0  0  0  0  0  0  0  0  0  0  0  0
   33.4102   12.9459    3.9858 H   0  0  0  0  0  0  0  0  0  0  0  0
   35.9099   15.8722    6.5603 H   0  0  0  0  0  0  0  0  0  0  0  0
   35.0006   14.8502    7.6922 H   0  0  0  0  0  0  0  0  0  0  0  0
   37.2551   13.8174    7.4186 H   0  0  0  0  0  0  0  0  0  0  0  0
   36.1043   12.8077    6.5556 H   0  0  0  0  0  0  0  0  0  0  0  0
   36.0758   12.7608    4.2105 H   0  0  0  0  0  0  0  0  0  0  0  0
   36.9653   14.0032    3.3185 H   0  0  0  0  0  0  0  0  0  0  0  0
   35.5393   15.7741    4.1812 H   0  0  0  0  0  0  0  0  0  0  0  0
   34.4741   14.5641    3.4919 H   0  0  0  0  0  0  0  0  0  0  0  0
   33.3283    9.0931    6.0986 H   0  0  0  0  0  0  0  0  0  0  0  0
   31.9215    7.9702    7.8202 H   0  0  0  0  0  0  0  0  0  0  0  0
  1  2  1  0
  2  3  1  0
  2  4  1  0
  4  5  2  0
  4  6  1  0
  6  7  1  0
  7  8  1  0
  8  9  2  0
  9 10  1  0
 10 11  1  0
 11 12  1  0
 12 13  1  0
 13 14  2  0
 13 15  1  0
 15 16  1  0
 16 17  1  0
 17 18  1  0
 18 19  1  0
 19 20  1  0
 10 21  2  0
 21 22  1  0
 22 23  2  0
 23 24  1  0
 23  8  1  0
 20 15  1  0
  1 25  1  0
  1 26  1  0
  1 27  1  0
  3 28  1  0
  3 29  1  0
  3 30  1  0
  6 31  1  0
  6 32  1  0
  9 33  1  0
 12 34  1  0
 12 35  1  0
 16 36  1  0
 16 37  1  0
 17 38  1  0
 17 39  1  0
 19 40  1  0
 19 41  1  0
 20 42  1  0
 20 43  1  0
 21 44  1  0
 22 45  1  0
M  END
