LIG
     RDKit          3D

 37 38  0  0  0  0  0  0  0  0999 V2000
   35.4811    8.0228    3.9447 C   0  0  0  0  0  0  0  0  0  0  0  0
   34.7044    9.1926    4.4895 C   0  0  0  0  0  0  0  0  0  0  0  0
   34.8460   10.3072    3.9940 O   0  0  0  0  0  0  0  0  0  0  0  0
   33.8502    8.8224    5.5158 N   0  0  0  0  0  0  0  0  0  0  0  0
   32.9071    9.6265    6.1892 C   0  0  0  0  0  0  0  0  0  0  0  0
   32.0454    9.0966    7.1443 C   0  0  0  0  0  0  0  0  0  0  0  0
   31.1298    9.8204    7.8270 N   0  0  0  0  0  0  0  0  0  0  0  0
   31.0075   11.1252    7.5051 C   0  0  0  0  0  0  0  0  0  0  0  0
   31.7881   11.7399    6.5443 C   0  0  0  0  0  0  0  0  0  0  0  0
   31.5127   13.0409    6.2199 O   0  0  0  0  0  0  0  0  0  0  0  0
   32.4649   13.6467    5.3470 C   0  0  0  0  0  0  0  0  0  0  0  0
   33.7879   13.9102    6.0742 C   0  0  0  0  0  0  0  0  0  0  0  0
   33.8335   13.9176    7.3074 O   0  0  0  0  0  0  0  0  0  0  0  0
   34.9140   14.0834    5.2942 N   0  0  0  0  0  0  0  0  0  0  0  0
   36.1640   14.3645    5.9843 C   0  0  0  0  0  0  0  0  0  0  0  0
   37.3535   13.7973    5.2125 C   0  0  0  0  0  0  0  0  0  0  0  0
   37.3783   14.2905    3.8644 O   0  0  0  0  0  0  0  0  0  0  0  0
   36.1758   13.9119    3.1774 C   0  0  0  0  0  0  0  0  0  0  0  0
   34.9250   14.4549    3.8784 C   0  0  0  0  0  0  0  0  0  0  0  0
   32.7746   10.9739    5.9254 C   0  0  0  0  0  0  0  0  0  0  0  0
   36.2851    8.3870    3.2984 H   0  0  0  0  0  0  0  0  0  0  0  0
   35.9339    7.4480    4.7567 H   0  0  0  0  0  0  0  0  0  0  0  0
   34.8163    7.3826    3.3586 H   0  0  0  0  0  0  0  0  0  0  0  0
   33.8633    7.8295    5.7675 H   0  0  0  0  0  0  0  0  0  0  0  0
   32.0565    8.0469    7.4186 H   0  0  0  0  0  0  0  0  0  0  0  0
   30.2301   11.6630    8.0421 H   0  0  0  0  0  0  0  0  0  0  0  0
   32.5778   13.0605    4.4303 H   0  0  0  0  0  0  0  0  0  0  0  0
   32.0571   14.6007    5.0137 H   0  0  0  0  0  0  0  0  0  0  0  0
   36.1598   13.9617    7.0019 H   0  0  0  0  0  0  0  0  0  0  0  0
   36.2332   15.4543    6.0431 H   0  0  0  0  0  0  0  0  0  0  0  0
   38.2932   14.0898    5.6896 H   0  0  0  0  0  0  0  0  0  0  0  0
   37.3206   12.7012    5.1886 H   0  0  0  0  0  0  0  0  0  0  0  0
   36.1397   12.8182    3.1072 H   0  0  0  0  0  0  0  0  0  0  0  0
   36.2343   14.3088    2.1592 H   0  0  0  0  0  0  0  0  0  0  0  0
   34.9245   15.5497    3.8421 H   0  0  0  0  0  0  0  0  0  0  0  0
   34.0284   14.1096    3.3616 H   0  0  0  0  0  0  0  0  0  0  0  0
   33.4426   11.4169    5.2067 H   0  0  0  0  0  0  0  0  0  0  0  0
  1  2  1  0
  2  3  2  0
  2  4  1  0
  4  5  1  0
  5  6  2  0
  6  7  1  0
  7  8  2  0
  8  9  1  0
  9 10  1  0
 10 11  1  0
 11 12  1  0
 12 13  2  0
 12 14  1  0
 14 15  1  0
 15 16  1  0
 16 17  1  0
 17 18  1  0
 18 19  1  0
  9 20  2  0
 20  5  1  0
 19 14  1  0
  1 21  1  0
  1 22  1  0
  1 23  1  0
  4 24  1  0
  6 25  1  0
  8 26  1  0
 11 27  1  0
 11 28  1  0
 15 29  1  0
 15 30  1  0
 16 31  1  0
 16 32  1  0
 18 33  1  0
 18 34  1  0
 19 35  1  0
 19 36  1  0
 20 37  1  0
M  END
