LIG
     RDKit          3D

 34 34  0  0  0  0  0  0  0  0999 V2000
   30.7566   16.7908    4.4968 C   0  0  0  0  0  0  0  0  0  0  0  0
   31.8811   15.8717    4.4074 N   0  0  0  0  0  0  0  0  0  0  0  0
   31.7225   14.7607    3.4808 C   0  0  0  0  0  0  0  0  0  0  0  0
   32.9066   15.9798    5.3402 C   0  0  0  0  0  0  0  0  0  0  0  0
   32.9315   16.8719    6.1944 O   0  0  0  0  0  0  0  0  0  0  0  0
   34.0325   14.9311    5.2879 C   0  0  0  0  0  0  0  0  0  0  0  0
   35.0470   15.1300    6.2680 O   0  0  0  0  0  0  0  0  0  0  0  0
   34.6680   14.7180    7.5670 C   0  0  0  0  0  0  0  0  0  0  0  0
   34.4250   13.2280    7.6390 C   0  0  0  0  0  0  0  0  0  0  0  0
   34.9120   12.5690    8.5560 O   0  0  0  0  0  0  0  0  0  0  0  0
   33.6520   12.7090    6.6590 N   0  0  0  0  0  0  0  0  0  0  0  0
   31.3810   12.1530    6.0670 C   0  0  0  0  0  0  0  0  0  0  0  0
   31.7330   10.8470    5.8070 C   0  0  0  0  0  0  0  0  0  0  0  0
   31.2880    9.8340    6.6350 C   0  0  0  0  0  0  0  0  0  0  0  0
   30.4800   10.1020    7.7350 C   0  0  0  0  0  0  0  0  0  0  0  0
   30.1520   11.4340    7.9910 C   0  0  0  0  0  0  0  0  0  0  0  0
   29.4280   11.6110    9.1450 O   0  0  0  0  0  0  0  0  0  0  0  0
   30.5900   12.4580    7.1610 C   0  0  0  0  0  0  0  0  0  0  0  0
   30.9787   17.6533    5.1304 H   0  0  0  0  0  0  0  0  0  0  0  0
   30.5079   17.1493    3.4936 H   0  0  0  0  0  0  0  0  0  0  0  0
   29.9005   16.2541    4.9164 H   0  0  0  0  0  0  0  0  0  0  0  0
   30.9821   14.0692    3.8936 H   0  0  0  0  0  0  0  0  0  0  0  0
   31.3688   15.1437    2.5190 H   0  0  0  0  0  0  0  0  0  0  0  0
   32.6560   14.2221    3.3138 H   0  0  0  0  0  0  0  0  0  0  0  0
   34.5197   15.0189    4.3115 H   0  0  0  0  0  0  0  0  0  0  0  0
   33.6165   13.9226    5.3881 H   0  0  0  0  0  0  0  0  0  0  0  0
   35.4199   14.9773    8.3268 H   0  0  0  0  0  0  0  0  0  0  0  0
   33.7372   15.2414    7.8226 H   0  0  0  0  0  0  0  0  0  0  0  0
   33.9640   12.3119    5.6757 H   0  0  0  0  0  0  0  0  0  0  0  0
   32.3628   10.5801    4.9608 H   0  0  0  0  0  0  0  0  0  0  0  0
   31.5782    8.7974    6.4220 H   0  0  0  0  0  0  0  0  0  0  0  0
   30.1285    9.2996    8.3577 H   0  0  0  0  0  0  0  0  0  0  0  0
   29.1282   12.5325    9.1762 H   0  0  0  0  0  0  0  0  0  0  0  0
   30.3015   13.4786    7.3848 H   0  0  0  0  0  0  0  0  0  0  0  0
  1  2  1  0
  2  3  1  0
  2  4  1  0
  4  5  2  0
  4  6  1  0
  6  7  1  0
  7  8  1  0
  8  9  1  0
  9 10  2  0
  9 11  1  0
 11 12  1  0
 12 13  4  0
 13 14  4  0
 14 15  4  0
 15 16  4  0
 16 17  1  0
 16 18  4  0
 18 12  4  0
  1 19  1  0
  1 20  1  0
  1 21  1  0
  3 22  1  0
  3 23  1  0
  3 24  1  0
  6 25  1  0
  6 26  1  0
  8 27  1  0
  8 28  1  0
 11 29  1  0
 13 30  1  0
 14 31  1  0
 15 32  1  0
 17 33  1  0
 18 34  1  0
M  END
$$$$
