LIG
     RDKit          3D

 44 45  0  0  0  0  0  0  0  0999 V2000
   30.1861   15.3098   11.0341 C   0  0  0  0  0  0  0  0  0  0  0  0
   29.5085   14.6132    9.9530 N   0  0  0  0  0  0  0  0  0  0  0  0
   28.3246   15.1855    9.3461 C   0  0  0  0  0  0  0  0  0  0  0  0
   30.2343   13.6155    9.3137 C   0  0  0  0  0  0  0  0  0  0  0  0
   31.4523   13.5416    9.4642 O   0  0  0  0  0  0  0  0  0  0  0  0
   29.4158   12.6144    8.4730 C   0  0  0  0  0  0  0  0  0  0  0  0
   29.7792   11.2466    8.5693 O   0  0  0  0  0  0  0  0  0  0  0  0
   30.8116   10.7574    7.8531 C   0  0  0  0  0  0  0  0  0  0  0  0
   31.1263    9.4145    7.9795 C   0  0  0  0  0  0  0  0  0  0  0  0
   32.1098    8.8135    7.2730 N   0  0  0  0  0  0  0  0  0  0  0  0
   32.8160    9.5876    6.4203 C   0  0  0  0  0  0  0  0  0  0  0  0
   32.5735   10.9336    6.2249 C   0  0  0  0  0  0  0  0  0  0  0  0
   33.3430   11.5805    5.3079 O   0  0  0  0  0  0  0  0  0  0  0  0
   32.9513   12.8959    4.9246 C   0  0  0  0  0  0  0  0  0  0  0  0
   33.4811   13.8833    5.9396 C   0  0  0  0  0  0  0  0  0  0  0  0
   32.9877   13.9171    7.0691 O   0  0  0  0  0  0  0  0  0  0  0  0
   34.5455   14.6886    5.6152 N   0  0  0  0  0  0  0  0  0  0  0  0
   35.4634   14.9106    6.7273 C   0  0  0  0  0  0  0  0  0  0  0  0
   36.5258   13.8128    6.6390 C   0  0  0  0  0  0  0  0  0  0  0  0
   37.2832   13.9889    5.4230 O   0  0  0  0  0  0  0  0  0  0  0  0
   36.4255   13.8026    4.2800 C   0  0  0  0  0  0  0  0  0  0  0  0
   35.2297   14.7615    4.3178 C   0  0  0  0  0  0  0  0  0  0  0  0
   31.5439   11.5041    6.9550 C   0  0  0  0  0  0  0  0  0  0  0  0
   29.4634   15.5277   11.8233 H   0  0  0  0  0  0  0  0  0  0  0  0
   30.6556   16.2183   10.6536 H   0  0  0  0  0  0  0  0  0  0  0  0
   30.9704   14.6913   11.4705 H   0  0  0  0  0  0  0  0  0  0  0  0
   27.9169   14.5811    8.5349 H   0  0  0  0  0  0  0  0  0  0  0  0
   28.5872   16.1418    8.8877 H   0  0  0  0  0  0  0  0  0  0  0  0
   27.5543   15.2917   10.1051 H   0  0  0  0  0  0  0  0  0  0  0  0
   28.3878   12.6364    8.8434 H   0  0  0  0  0  0  0  0  0  0  0  0
   29.3538   12.9595    7.4346 H   0  0  0  0  0  0  0  0  0  0  0  0
   30.5748    8.7624    8.6511 H   0  0  0  0  0  0  0  0  0  0  0  0
   33.5990    9.0682    5.8739 H   0  0  0  0  0  0  0  0  0  0  0  0
   33.3606   13.0551    3.9287 H   0  0  0  0  0  0  0  0  0  0  0  0
   31.8692   13.0185    4.8088 H   0  0  0  0  0  0  0  0  0  0  0  0
   35.9143   15.8876    6.5822 H   0  0  0  0  0  0  0  0  0  0  0  0
   34.9650   14.8861    7.7002 H   0  0  0  0  0  0  0  0  0  0  0  0
   36.0666   12.8234    6.6044 H   0  0  0  0  0  0  0  0  0  0  0  0
   37.2112   13.8236    7.4890 H   0  0  0  0  0  0  0  0  0  0  0  0
   36.0930   12.7581    4.2589 H   0  0  0  0  0  0  0  0  0  0  0  0
   37.0234   13.9807    3.3809 H   0  0  0  0  0  0  0  0  0  0  0  0
   34.5419   14.5865    3.4888 H   0  0  0  0  0  0  0  0  0  0  0  0
   35.6084   15.7798    4.2033 H   0  0  0  0  0  0  0  0  0  0  0  0
   31.2919   12.5412    6.8248 H   0  0  0  0  0  0  0  0  0  0  0  0
  1  2  1  0
  2  3  1  0
  2  4  1  0
  4  5  2  0
  4  6  1  0
  6  7  1  0
  7  8  1  0
  8  9  2  0
  9 10  1  0
 10 11  2  0
 11 12  1  0
 12 13  1  0
 13 14  1  0
 14 15  1  0
 15 16  2  0
 15 17  1  0
 17 18  1  0
 18 19  1  0
 19 20  1  0
 20 21  1  0
 21 22  1  0
 12 23  2  0
 23  8  1  0
 22 17  1  0
  1 24  1  0
  1 25  1  0
  1 26  1  0
  3 27  1  0
  3 28  1  0
  3 29  1  0
  6 30  1  0
  6 31  1  0
  9 32  1  0
 11 33  1  0
 14 34  1  0
 14 35  1  0
 18 36  1  0
 18 37  1  0
 19 38  1  0
 19 39  1  0
 21 40  1  0
 21 41  1  0
 22 42  1  0
 22 43  1  0
 23 44  1  0
M  END
