LIG
     RDKit          3D

 34 34  0  0  0  0  0  0  0  0999 V2000
   33.3349   16.6711    9.7492 C   0  0  0  0  0  0  0  0  0  0  0  0
   32.4118   16.2021    8.7435 N   0  0  0  0  0  0  0  0  0  0  0  0
   31.7023   17.2981    8.0866 C   0  0  0  0  0  0  0  0  0  0  0  0
   32.2271   14.8254    8.5632 C   0  0  0  0  0  0  0  0  0  0  0  0
   32.7709   14.0090    9.3128 O   0  0  0  0  0  0  0  0  0  0  0  0
   31.2719   14.3027    7.4457 C   0  0  0  0  0  0  0  0  0  0  0  0
   31.2045   13.4051    6.3575 O   0  0  0  0  0  0  0  0  0  0  0  0
   31.9895   12.3237    6.3841 C   0  0  0  0  0  0  0  0  0  0  0  0
   31.5038   11.0564    6.0915 C   0  0  0  0  0  0  0  0  0  0  0  0
   32.3733    9.9777    6.0883 C   0  0  0  0  0  0  0  0  0  0  0  0
   33.7152   10.2032    6.3927 C   0  0  0  0  0  0  0  0  0  0  0  0
   34.1755   11.4982    6.6813 C   0  0  0  0  0  0  0  0  0  0  0  0
   35.4681   11.6696    7.1642 N   0  0  0  0  0  0  0  0  0  0  0  0
   36.1017   12.7066    7.7827 C   0  0  0  0  0  0  0  0  0  0  0  0
   37.1034   12.3831    8.4351 O   0  0  0  0  0  0  0  0  0  0  0  0
   35.7219   14.1729    7.7270 C   0  0  0  0  0  0  0  0  0  0  0  0
   35.9681   14.8978    6.0783 S   0  0  0  0  0  0  0  0  0  0  0  0
   33.3162   12.5493    6.5878 C   0  0  0  0  0  0  0  0  0  0  0  0
   34.0008   15.8837   10.1062 H   0  0  0  0  0  0  0  0  0  0  0  0
   33.9847   17.4316    9.3011 H   0  0  0  0  0  0  0  0  0  0  0  0
   32.7728   17.1448   10.5539 H   0  0  0  0  0  0  0  0  0  0  0  0
   31.0414   17.7974    8.8015 H   0  0  0  0  0  0  0  0  0  0  0  0
   32.4498   18.0385    7.7755 H   0  0  0  0  0  0  0  0  0  0  0  0
   31.1800   17.0308    7.1701 H   0  0  0  0  0  0  0  0  0  0  0  0
   30.5455   13.9164    8.1559 H   0  0  0  0  0  0  0  0  0  0  0  0
   30.9029   15.1747    6.9202 H   0  0  0  0  0  0  0  0  0  0  0  0
   30.4653   10.9184    5.8380 H   0  0  0  0  0  0  0  0  0  0  0  0
   32.0133    8.9755    5.8732 H   0  0  0  0  0  0  0  0  0  0  0  0
   34.3889    9.3509    6.4511 H   0  0  0  0  0  0  0  0  0  0  0  0
   35.9755   10.8103    7.3494 H   0  0  0  0  0  0  0  0  0  0  0  0
   34.7299   14.3469    8.1130 H   0  0  0  0  0  0  0  0  0  0  0  0
   36.3891   14.7152    8.4074 H   0  0  0  0  0  0  0  0  0  0  0  0
   35.4953   13.8574    5.3751 H   0  0  0  0  0  0  0  0  0  0  0  0
   33.6246   13.5696    6.6815 H   0  0  0  0  0  0  0  0  0  0  0  0
  1  2  1  0
  2  3  1  0
  2  4  1  0
  4  5  2  0
  4  6  1  0
  6  7  1  0
  7  8  1  0
  8  9  2  0
  9 10  1  0
 10 11  2  0
 11 12  1  0
 12 13  1  0
 13 14  1  0
 14 15  2  0
 14 16  1  0
 16 17  1  0
 12 18  2  0
 18  8  1  0
  1 19  1  0
  1 20  1  0
  1 21  1  0
  3 22  1  0
  3 23  1  0
  3 24  1  0
  6 25  1  0
  6 26  1  0
  9 27  1  0
 10 28  1  0
 11 29  1  0
 13 30  1  0
 16 31  1  0
 16 32  1  0
 17 33  1  0
 18 34  1  0
M  END
