LIG
     RDKit          3D

 42 43  0  0  0  0  0  0  0  0999 V2000
   30.6073   11.2813    8.4013 C   0  0  0  0  0  0  0  0  0  0  0  0
   31.5518   12.1703    7.6568 C   0  0  0  0  0  0  0  0  0  0  0  0
   32.6903   12.7410    8.2055 C   0  0  0  0  0  0  0  0  0  0  0  0
   33.7041   13.2099    7.3844 C   0  0  0  0  0  0  0  0  0  0  0  0
   33.5134   13.2363    6.0173 C   0  0  0  0  0  0  0  0  0  0  0  0
   34.6332   13.4765    5.2914 O   0  0  0  0  0  0  0  0  0  0  0  0
   34.5239   13.2897    3.8923 C   0  0  0  0  0  0  0  0  0  0  0  0
   34.2586   14.6381    3.2452 C   0  0  0  0  0  0  0  0  0  0  0  0
   33.1113   14.9730    2.9400 O   0  0  0  0  0  0  0  0  0  0  0  0
   35.3816   15.4316    2.9992 N   0  0  0  0  0  0  0  0  0  0  0  0
   36.5346   15.3801    3.9141 C   0  0  0  0  0  0  0  0  0  0  0  0
   37.7351   16.1747    3.4034 C   0  0  0  0  0  0  0  0  0  0  0  0
   37.3725   17.5037    3.0267 O   0  0  0  0  0  0  0  0  0  0  0  0
   36.3936   17.4670    1.9818 C   0  0  0  0  0  0  0  0  0  0  0  0
   35.1180   16.7434    2.4112 C   0  0  0  0  0  0  0  0  0  0  0  0
   32.2298   13.0591    5.5261 C   0  0  0  0  0  0  0  0  0  0  0  0
   31.2420   12.5681    6.3685 C   0  0  0  0  0  0  0  0  0  0  0  0
   29.8775   12.5660    6.0460 N   0  0  0  0  0  0  0  0  0  0  0  0
   29.2857   13.6202    5.3768 C   0  0  0  0  0  0  0  0  0  0  0  0
   29.8183   14.3638    4.5628 O   0  0  0  0  0  0  0  0  0  0  0  0
   27.8677   13.7953    5.8303 C   0  0  0  0  0  0  0  0  0  0  0  0
   27.8768   14.3786    7.1756 C   0  0  0  0  0  0  0  0  0  0  0  0
   27.8398   14.7558    8.2732 N   0  0  0  0  0  0  0  0  0  0  0  0
   30.1252   10.5698    7.7239 H   0  0  0  0  0  0  0  0  0  0  0  0
   31.1113   10.6267    9.1011 H   0  0  0  0  0  0  0  0  0  0  0  0
   29.8364   11.8904    8.8685 H   0  0  0  0  0  0  0  0  0  0  0  0
   32.8590   12.8062    9.2670 H   0  0  0  0  0  0  0  0  0  0  0  0
   34.6603   13.5120    7.8068 H   0  0  0  0  0  0  0  0  0  0  0  0
   33.7733   12.5540    3.5807 H   0  0  0  0  0  0  0  0  0  0  0  0
   35.4680   12.8790    3.5186 H   0  0  0  0  0  0  0  0  0  0  0  0
   36.2080   15.7602    4.8843 H   0  0  0  0  0  0  0  0  0  0  0  0
   36.8526   14.3465    4.0709 H   0  0  0  0  0  0  0  0  0  0  0  0
   38.5024   16.2385    4.1806 H   0  0  0  0  0  0  0  0  0  0  0  0
   38.1891   15.6743    2.5393 H   0  0  0  0  0  0  0  0  0  0  0  0
   36.8355   16.9833    1.1021 H   0  0  0  0  0  0  0  0  0  0  0  0
   36.1598   18.4997    1.7041 H   0  0  0  0  0  0  0  0  0  0  0  0
   34.5680   17.3407    3.1413 H   0  0  0  0  0  0  0  0  0  0  0  0
   34.4562   16.6195    1.5457 H   0  0  0  0  0  0  0  0  0  0  0  0
   31.9821   13.2848    4.4953 H   0  0  0  0  0  0  0  0  0  0  0  0
   29.2832   12.1265    6.7374 H   0  0  0  0  0  0  0  0  0  0  0  0
   27.3624   12.8229    5.8551 H   0  0  0  0  0  0  0  0  0  0  0  0
   27.3424   14.3798    5.0775 H   0  0  0  0  0  0  0  0  0  0  0  0
  1  2  1  0
  2  3  2  0
  3  4  1  0
  4  5  2  0
  5  6  1  0
  6  7  1  0
  7  8  1  0
  8  9  2  0
  8 10  1  0
 10 11  1  0
 11 12  1  0
 12 13  1  0
 13 14  1  0
 14 15  1  0
  5 16  1  0
 16 17  2  0
 17 18  1  0
 18 19  1  0
 19 20  2  0
 19 21  1  0
 21 22  1  0
 22 23  3  0
 17  2  1  0
 15 10  1  0
  1 24  1  0
  1 25  1  0
  1 26  1  0
  3 27  1  0
  4 28  1  0
  7 29  1  0
  7 30  1  0
 11 31  1  0
 11 32  1  0
 12 33  1  0
 12 34  1  0
 14 35  1  0
 14 36  1  0
 15 37  1  0
 15 38  1  0
 16 39  1  0
 18 40  1  0
 21 41  1  0
 21 42  1  0
M  END
