LIG
     RDKit          3D

 38 39  0  0  0  0  0  0  0  0999 V2000
   34.3757   10.2685    5.0678 C   0  0  0  0  0  0  0  0  0  0  0  0
   33.2320   10.3998    6.0265 C   0  0  0  0  0  0  0  0  0  0  0  0
   32.5599    9.2516    6.4500 C   0  0  0  0  0  0  0  0  0  0  0  0
   31.4991    9.3122    7.3495 C   0  0  0  0  0  0  0  0  0  0  0  0
   31.0260   10.5457    7.7683 C   0  0  0  0  0  0  0  0  0  0  0  0
   31.6576   11.7115    7.3378 C   0  0  0  0  0  0  0  0  0  0  0  0
   31.1916   12.9874    7.5411 O   0  0  0  0  0  0  0  0  0  0  0  0
   30.2454   13.1298    8.5766 C   0  0  0  0  0  0  0  0  0  0  0  0
   28.8234   12.8080    8.1148 C   0  0  0  0  0  0  0  0  0  0  0  0
   28.3408   14.1022    7.5410 C   0  0  0  0  0  0  0  0  0  0  0  0
   28.9748   15.0497    8.3969 N   0  0  0  0  0  0  0  0  0  0  0  0
   28.5526   16.3930    8.3851 C   0  0  0  0  0  0  0  0  0  0  0  0
   30.1448   14.5874    8.9639 C   0  0  0  0  0  0  0  0  0  0  0  0
   30.9707   15.2465    9.5797 O   0  0  0  0  0  0  0  0  0  0  0  0
   32.8270   11.6226    6.5658 C   0  0  0  0  0  0  0  0  0  0  0  0
   33.6548   12.7570    6.4427 N   0  0  0  0  0  0  0  0  0  0  0  0
   34.1558   13.3536    7.6029 C   0  0  0  0  0  0  0  0  0  0  0  0
   33.8835   12.9948    8.7525 O   0  0  0  0  0  0  0  0  0  0  0  0
   35.1216   14.4984    7.3685 C   0  0  0  0  0  0  0  0  0  0  0  0
   35.6631   14.6518    5.6391 S   0  0  0  0  0  0  0  0  0  0  0  0
   35.2801   10.7464    5.4521 H   0  0  0  0  0  0  0  0  0  0  0  0
   34.6207    9.2193    4.8707 H   0  0  0  0  0  0  0  0  0  0  0  0
   34.1098   10.7322    4.1121 H   0  0  0  0  0  0  0  0  0  0  0  0
   32.9025    8.2818    6.1167 H   0  0  0  0  0  0  0  0  0  0  0  0
   31.0189    8.3985    7.6967 H   0  0  0  0  0  0  0  0  0  0  0  0
   30.1643   10.5499    8.4264 H   0  0  0  0  0  0  0  0  0  0  0  0
   30.5600   12.5910    9.4511 H   0  0  0  0  0  0  0  0  0  0  0  0
   28.2161   12.5819    8.9931 H   0  0  0  0  0  0  0  0  0  0  0  0
   28.7323   12.0026    7.3837 H   0  0  0  0  0  0  0  0  0  0  0  0
   28.6922   14.2576    6.5150 H   0  0  0  0  0  0  0  0  0  0  0  0
   27.2566   14.2026    7.5792 H   0  0  0  0  0  0  0  0  0  0  0  0
   29.2696   17.0482    8.8464 H   0  0  0  0  0  0  0  0  0  0  0  0
   28.4829   16.6981    7.3466 H   0  0  0  0  0  0  0  0  0  0  0  0
   27.6045   16.4195    8.9189 H   0  0  0  0  0  0  0  0  0  0  0  0
   34.3408   12.7694    5.6968 H   0  0  0  0  0  0  0  0  0  0  0  0
   36.0049   14.3330    7.9912 H   0  0  0  0  0  0  0  0  0  0  0  0
   34.6349   15.4201    7.6791 H   0  0  0  0  0  0  0  0  0  0  0  0
   35.5884   15.9982    5.5871 H   0  0  0  0  0  0  0  0  0  0  0  0
  1  2  1  0
  2  3  2  0
  3  4  1  0
  4  5  2  0
  5  6  1  0
  6  7  1  0
  7  8  1  0
  8  9  1  0
  9 10  1  0
 10 11  1  0
 11 12  1  0
 11 13  1  0
 13 14  2  0
  6 15  2  0
 15 16  1  0
 16 17  1  0
 17 18  2  0
 17 19  1  0
 19 20  1  0
 15  2  1  0
 13  8  1  0
  1 21  1  0
  1 22  1  0
  1 23  1  0
  3 24  1  0
  4 25  1  0
  5 26  1  0
  8 27  1  0
  9 28  1  0
  9 29  1  0
 10 30  1  0
 10 31  1  0
 12 32  1  0
 12 33  1  0
 12 34  1  0
 16 35  1  0
 19 36  1  0
 19 37  1  0
 20 38  1  0
M  END
