LIG
     RDKit          3D

 35 36  0  0  0  0  0  0  0  0999 V2000
   28.1104   14.9406   10.0473 C   0  0  0  0  0  0  0  0  0  0  0  0
   28.8916   15.1142    8.8638 N   0  0  0  0  0  0  0  0  0  0  0  0
   28.3555   14.5516    7.6533 C   0  0  0  0  0  0  0  0  0  0  0  0
   28.8722   13.1381    7.6313 C   0  0  0  0  0  0  0  0  0  0  0  0
   30.2270   13.2421    8.3337 C   0  0  0  0  0  0  0  0  0  0  0  0
   31.2774   13.1063    7.4243 O   0  0  0  0  0  0  0  0  0  0  0  0
   31.7046   11.8192    7.2076 C   0  0  0  0  0  0  0  0  0  0  0  0
   31.0387   10.6537    7.5886 C   0  0  0  0  0  0  0  0  0  0  0  0
   31.5460    9.4129    7.2148 C   0  0  0  0  0  0  0  0  0  0  0  0
   32.6611    9.3397    6.3842 C   0  0  0  0  0  0  0  0  0  0  0  0
   33.3361   10.4907    6.0012 C   0  0  0  0  0  0  0  0  0  0  0  0
   32.9042   11.7134    6.4970 C   0  0  0  0  0  0  0  0  0  0  0  0
   33.7533   12.8237    6.3810 N   0  0  0  0  0  0  0  0  0  0  0  0
   34.2342   13.4327    7.5451 C   0  0  0  0  0  0  0  0  0  0  0  0
   33.9142   13.1128    8.6935 O   0  0  0  0  0  0  0  0  0  0  0  0
   35.2119   14.5620    7.2830 C   0  0  0  0  0  0  0  0  0  0  0  0
   36.1107   14.3364    5.7172 S   0  0  0  0  0  0  0  0  0  0  0  0
   30.1868   14.5960    9.0305 C   0  0  0  0  0  0  0  0  0  0  0  0
   31.0608   15.1351    9.6934 O   0  0  0  0  0  0  0  0  0  0  0  0
   27.1864   15.4980    9.9172 H   0  0  0  0  0  0  0  0  0  0  0  0
   28.6658   15.2404   10.9390 H   0  0  0  0  0  0  0  0  0  0  0  0
   27.8869   13.8796   10.1906 H   0  0  0  0  0  0  0  0  0  0  0  0
   27.2672   14.6131    7.6344 H   0  0  0  0  0  0  0  0  0  0  0  0
   28.7611   15.1200    6.8101 H   0  0  0  0  0  0  0  0  0  0  0  0
   28.9195   12.7378    6.6141 H   0  0  0  0  0  0  0  0  0  0  0  0
   28.2037   12.5006    8.2145 H   0  0  0  0  0  0  0  0  0  0  0  0
   30.3092   12.5235    9.1437 H   0  0  0  0  0  0  0  0  0  0  0  0
   30.1269   10.6555    8.1743 H   0  0  0  0  0  0  0  0  0  0  0  0
   31.0543    8.4999    7.5473 H   0  0  0  0  0  0  0  0  0  0  0  0
   33.0509    8.3757    6.0807 H   0  0  0  0  0  0  0  0  0  0  0  0
   34.2543   10.4052    5.4277 H   0  0  0  0  0  0  0  0  0  0  0  0
   34.4625   12.7951    5.6544 H   0  0  0  0  0  0  0  0  0  0  0  0
   34.6698   15.5034    7.2444 H   0  0  0  0  0  0  0  0  0  0  0  0
   35.9356   14.5912    8.1012 H   0  0  0  0  0  0  0  0  0  0  0  0
   36.8721   13.3175    6.1466 H   0  0  0  0  0  0  0  0  0  0  0  0
  1  2  1  0
  2  3  1  0
  3  4  1  0
  4  5  1  0
  5  6  1  0
  6  7  1  0
  7  8  2  0
  8  9  1  0
  9 10  2  0
 10 11  1  0
 11 12  2  0
 12 13  1  0
 13 14  1  0
 14 15  2  0
 14 16  1  0
 16 17  1  0
  5 18  1  0
 18 19  2  0
 18  2  1  0
 12  7  1  0
  1 20  1  0
  1 21  1  0
  1 22  1  0
  3 23  1  0
  3 24  1  0
  4 25  1  0
  4 26  1  0
  5 27  1  0
  8 28  1  0
  9 29  1  0
 10 30  1  0
 11 31  1  0
 13 32  1  0
 16 33  1  0
 16 34  1  0
 17 35  1  0
M  END
