LIG
     RDKit          3D

 37 37  0  0  0  0  0  0  0  0999 V2000
   30.0095    8.8327    8.5308 C   0  0  0  0  0  0  0  0  0  0  0  0
   30.8260    9.8692    7.8307 C   0  0  0  0  0  0  0  0  0  0  0  0
   31.8853    9.4296    7.0290 C   0  0  0  0  0  0  0  0  0  0  0  0
   32.7897   10.3339    6.4975 C   0  0  0  0  0  0  0  0  0  0  0  0
   32.6735   11.6710    6.8564 C   0  0  0  0  0  0  0  0  0  0  0  0
   33.8073   12.4756    6.7232 N   0  0  0  0  0  0  0  0  0  0  0  0
   34.1879   13.3989    7.6870 C   0  0  0  0  0  0  0  0  0  0  0  0
   33.7766   13.3848    8.8460 O   0  0  0  0  0  0  0  0  0  0  0  0
   35.3007   14.3416    7.2131 C   0  0  0  0  0  0  0  0  0  0  0  0
   35.1719   14.9630    5.9436 O   0  0  0  0  0  0  0  0  0  0  0  0
   35.1392   14.0779    4.8505 C   0  0  0  0  0  0  0  0  0  0  0  0
   35.4163   14.5834    3.4304 C   0  0  0  0  0  0  0  0  0  0  0  0
   35.6564   15.7587    3.1718 O   0  0  0  0  0  0  0  0  0  0  0  0
   35.3553   13.6007    2.4277 N   0  0  0  0  0  0  0  0  0  0  0  0
   35.3440   12.1689    2.6901 C   0  0  0  0  0  0  0  0  0  0  0  0
   35.7149   14.0024    1.0802 C   0  0  0  0  0  0  0  0  0  0  0  0
   31.5188   12.1498    7.4546 C   0  0  0  0  0  0  0  0  0  0  0  0
   30.5911   11.2416    7.9258 C   0  0  0  0  0  0  0  0  0  0  0  0
   29.4845   11.7893    8.4850 O   0  0  0  0  0  0  0  0  0  0  0  0
   29.0724    8.6497    8.0069 H   0  0  0  0  0  0  0  0  0  0  0  0
   29.8381    9.1199    9.5700 H   0  0  0  0  0  0  0  0  0  0  0  0
   30.5476    7.8848    8.5774 H   0  0  0  0  0  0  0  0  0  0  0  0
   32.0586    8.3645    6.8954 H   0  0  0  0  0  0  0  0  0  0  0  0
   33.6586    9.9550    5.9690 H   0  0  0  0  0  0  0  0  0  0  0  0
   34.6163   12.0185    6.3194 H   0  0  0  0  0  0  0  0  0  0  0  0
   35.3586   15.1438    7.9514 H   0  0  0  0  0  0  0  0  0  0  0  0
   36.2517   13.7981    7.2593 H   0  0  0  0  0  0  0  0  0  0  0  0
   34.1189   13.6916    4.7767 H   0  0  0  0  0  0  0  0  0  0  0  0
   35.8616   13.2734    5.0315 H   0  0  0  0  0  0  0  0  0  0  0  0
   34.8936   11.6458    1.8413 H   0  0  0  0  0  0  0  0  0  0  0  0
   34.7666   11.9225    3.5829 H   0  0  0  0  0  0  0  0  0  0  0  0
   36.3759   11.8319    2.8247 H   0  0  0  0  0  0  0  0  0  0  0  0
   35.5465   15.0700    0.9144 H   0  0  0  0  0  0  0  0  0  0  0  0
   36.7743   13.7807    0.9199 H   0  0  0  0  0  0  0  0  0  0  0  0
   35.1093   13.4419    0.3620 H   0  0  0  0  0  0  0  0  0  0  0  0
   31.3740   13.2075    7.6526 H   0  0  0  0  0  0  0  0  0  0  0  0
   29.4091   11.4984    9.4196 H   0  0  0  0  0  0  0  0  0  0  0  0
  1  2  1  0
  2  3  2  0
  3  4  1  0
  4  5  2  0
  5  6  1  0
  6  7  1  0
  7  8  2  0
  7  9  1  0
  9 10  1  0
 10 11  1  0
 11 12  1  0
 12 13  2  0
 12 14  1  0
 14 15  1  0
 14 16  1  0
  5 17  1  0
 17 18  2  0
 18 19  1  0
 18  2  1  0
  1 20  1  0
  1 21  1  0
  1 22  1  0
  3 23  1  0
  4 24  1  0
  6 25  1  0
  9 26  1  0
  9 27  1  0
 11 28  1  0
 11 29  1  0
 15 30  1  0
 15 31  1  0
 15 32  1  0
 16 33  1  0
 16 34  1  0
 16 35  1  0
 17 36  1  0
 19 37  1  0
M  END
