LIG
     RDKit          3D

 38 39  0  0  0  0  0  0  0  0999 V2000
   34.4770    9.6170    4.1420 C   0  0  0  0  0  0  0  0  0  0  0  0
   34.7220   11.0190    4.6240 C   0  0  0  0  0  0  0  0  0  0  0  0
   35.7630   11.6170    4.3630 O   0  0  0  0  0  0  0  0  0  0  0  0
   33.6960   11.5950    5.3080 N   0  0  0  0  0  0  0  0  0  0  0  0
   32.8545   10.7801    7.2112 C   0  0  0  0  0  0  0  0  0  0  0  0
   33.3470   10.2740    7.4930 C   0  0  0  0  0  0  0  0  0  0  0  0
   32.8900   11.5720    7.6690 C   0  0  0  0  0  0  0  0  0  0  0  0
   33.3940   12.4720    6.7660 O   0  0  0  0  0  0  0  0  0  0  0  0
   32.5070   13.2300    6.0470 C   0  0  0  0  0  0  0  0  0  0  0  0
   32.8430   14.5690    6.5820 C   0  0  0  0  0  0  0  0  0  0  0  0
   32.2450   15.0040    7.5510 O   0  0  0  0  0  0  0  0  0  0  0  0
   33.9260   15.1770    6.0590 N   0  0  0  0  0  0  0  0  0  0  0  0
   34.7260   15.9040    7.0650 C   0  0  0  0  0  0  0  0  0  0  0  0
   36.2000   15.5640    6.9400 C   0  0  0  0  0  0  0  0  0  0  0  0
   36.6530   15.7410    5.6230 O   0  0  0  0  0  0  0  0  0  0  0  0
   35.9790   14.7950    4.8070 C   0  0  0  0  0  0  0  0  0  0  0  0
   34.5050   15.1130    4.7140 C   0  0  0  0  0  0  0  0  0  0  0  0
   31.8380   11.8440    8.5230 C   0  0  0  0  0  0  0  0  0  0  0  0
   31.1650   10.7950    9.1290 C   0  0  0  0  0  0  0  0  0  0  0  0
   31.5630    9.4800    8.9430 C   0  0  0  0  0  0  0  0  0  0  0  0
   30.8480    8.3410    9.6370 F   0  0  0  0  0  0  0  0  0  0  0  0
   33.4416    9.3344    4.3577 H   0  0  0  0  0  0  0  0  0  0  0  0
   34.6293    9.5343    3.0609 H   0  0  0  0  0  0  0  0  0  0  0  0
   33.6779    9.6241    3.3949 H   0  0  0  0  0  0  0  0  0  0  0  0
   32.9144   10.9921    5.5522 H   0  0  0  0  0  0  0  0  0  0  0  0
   32.6409    9.4508    7.6116 H   0  0  0  0  0  0  0  0  0  0  0  0
   32.7332   13.2166    4.9980 H   0  0  0  0  0  0  0  0  0  0  0  0
   31.4815   13.0046    6.2579 H   0  0  0  0  0  0  0  0  0  0  0  0
   34.5637   16.9907    6.9848 H   0  0  0  0  0  0  0  0  0  0  0  0
   34.3403   15.5902    8.0501 H   0  0  0  0  0  0  0  0  0  0  0  0
   36.8085   16.1833    7.6218 H   0  0  0  0  0  0  0  0  0  0  0  0
   36.3666   14.5128    7.2235 H   0  0  0  0  0  0  0  0  0  0  0  0
   36.4546   14.7798    3.8131 H   0  0  0  0  0  0  0  0  0  0  0  0
   36.1267   13.8012    5.2542 H   0  0  0  0  0  0  0  0  0  0  0  0
   34.3304   16.0345    4.1487 H   0  0  0  0  0  0  0  0  0  0  0  0
   33.9736   14.3052    4.1882 H   0  0  0  0  0  0  0  0  0  0  0  0
   31.5006   12.8560    8.7310 H   0  0  0  0  0  0  0  0  0  0  0  0
   30.2880   10.9917    9.7556 H   0  0  0  0  0  0  0  0  0  0  0  0
  1  2  1  0
  2  3  2  0
  2  4  1  0
  4  5  1  0
  5  6  4  0
  6  7  4  0
  7  8  1  0
  8  9  1  0
  9 10  1  0
 10 11  2  0
 10 12  1  0
 12 13  1  0
 13 14  1  0
 14 15  1  0
 15 16  1  0
 16 17  1  0
  7 18  4  0
 18 19  4  0
 19 20  4  0
 20 21  1  0
 20  5  4  0
 17 12  1  0
  1 22  1  0
  1 23  1  0
  1 24  1  0
  4 25  1  0
  6 26  1  0
  9 27  1  0
  9 28  1  0
 13 29  1  0
 13 30  1  0
 14 31  1  0
 14 32  1  0
 16 33  1  0
 16 34  1  0
 17 35  1  0
 17 36  1  0
 18 37  1  0
 19 38  1  0
M  END
