LIG
     RDKit          3D

 41 42  0  0  0  0  0  0  0  0999 V2000
   34.1851   10.2711    3.0515 C   0  0  0  0  0  0  0  0  0  0  0  0
   34.9929   10.0411    4.2972 C   0  0  0  0  0  0  0  0  0  0  0  0
   36.1575   10.4190    4.3740 O   0  0  0  0  0  0  0  0  0  0  0  0
   34.3545    9.2954    5.2651 N   0  0  0  0  0  0  0  0  0  0  0  0
   33.2222    9.7367    5.9783 C   0  0  0  0  0  0  0  0  0  0  0  0
   32.5353    8.9228    6.8614 C   0  0  0  0  0  0  0  0  0  0  0  0
   31.5097    9.4244    7.6639 C   0  0  0  0  0  0  0  0  0  0  0  0
   30.8659    8.5351    8.6709 C   0  0  0  0  0  0  0  0  0  0  0  0
   31.0984   10.7426    7.4964 C   0  0  0  0  0  0  0  0  0  0  0  0
   31.7484   11.5415    6.5759 C   0  0  0  0  0  0  0  0  0  0  0  0
   31.2578   12.7944    6.3437 O   0  0  0  0  0  0  0  0  0  0  0  0
   32.1343   13.6060    5.5687 C   0  0  0  0  0  0  0  0  0  0  0  0
   33.3262   13.9431    6.4615 C   0  0  0  0  0  0  0  0  0  0  0  0
   33.2081   13.9229    7.6920 O   0  0  0  0  0  0  0  0  0  0  0  0
   34.5292   14.2000    5.8493 N   0  0  0  0  0  0  0  0  0  0  0  0
   35.6748   14.4201    6.7233 C   0  0  0  0  0  0  0  0  0  0  0  0
   36.9031   13.7841    6.0868 C   0  0  0  0  0  0  0  0  0  0  0  0
   37.1812   14.4464    4.8431 O   0  0  0  0  0  0  0  0  0  0  0  0
   36.1157   14.1826    3.9201 C   0  0  0  0  0  0  0  0  0  0  0  0
   34.7392   14.6037    4.4559 C   0  0  0  0  0  0  0  0  0  0  0  0
   32.8421   11.0453    5.8877 C   0  0  0  0  0  0  0  0  0  0  0  0
   33.4284   11.0444    3.1852 H   0  0  0  0  0  0  0  0  0  0  0  0
   34.8565   10.5919    2.2483 H   0  0  0  0  0  0  0  0  0  0  0  0
   33.7185    9.3355    2.7326 H   0  0  0  0  0  0  0  0  0  0  0  0
   34.9637    8.7106    5.8282 H   0  0  0  0  0  0  0  0  0  0  0  0
   32.8211    7.8912    6.9870 H   0  0  0  0  0  0  0  0  0  0  0  0
   30.3689    9.1215    9.4497 H   0  0  0  0  0  0  0  0  0  0  0  0
   31.6122    7.9198    9.1721 H   0  0  0  0  0  0  0  0  0  0  0  0
   30.1112    7.9002    8.2055 H   0  0  0  0  0  0  0  0  0  0  0  0
   30.2672   11.1422    8.0757 H   0  0  0  0  0  0  0  0  0  0  0  0
   31.6054   14.4975    5.2520 H   0  0  0  0  0  0  0  0  0  0  0  0
   32.3850   13.1330    4.6155 H   0  0  0  0  0  0  0  0  0  0  0  0
   35.7850   15.5023    6.8186 H   0  0  0  0  0  0  0  0  0  0  0  0
   35.5165   13.9944    7.7186 H   0  0  0  0  0  0  0  0  0  0  0  0
   37.7867   13.8569    6.7229 H   0  0  0  0  0  0  0  0  0  0  0  0
   36.7467   12.7147    5.9003 H   0  0  0  0  0  0  0  0  0  0  0  0
   36.3333   14.7186    2.9907 H   0  0  0  0  0  0  0  0  0  0  0  0
   36.1188   13.1123    3.6841 H   0  0  0  0  0  0  0  0  0  0  0  0
   33.9535   14.2183    3.8036 H   0  0  0  0  0  0  0  0  0  0  0  0
   34.6625   15.6883    4.4255 H   0  0  0  0  0  0  0  0  0  0  0  0
   33.4602   11.6775    5.2733 H   0  0  0  0  0  0  0  0  0  0  0  0
  1  2  1  0
  2  3  2  0
  2  4  1  0
  4  5  1  0
  5  6  2  0
  6  7  1  0
  7  8  1  0
  7  9  2  0
  9 10  1  0
 10 11  1  0
 11 12  1  0
 12 13  1  0
 13 14  2  0
 13 15  1  0
 15 16  1  0
 16 17  1  0
 17 18  1  0
 18 19  1  0
 19 20  1  0
 10 21  2  0
 21  5  1  0
 20 15  1  0
  1 22  1  0
  1 23  1  0
  1 24  1  0
  4 25  1  0
  6 26  1  0
  8 27  1  0
  8 28  1  0
  8 29  1  0
  9 30  1  0
 12 31  1  0
 12 32  1  0
 16 33  1  0
 16 34  1  0
 17 35  1  0
 17 36  1  0
 19 37  1  0
 19 38  1  0
 20 39  1  0
 20 40  1  0
 21 41  1  0
M  END
