LIG
     RDKit          3D

 41 41  0  0  0  0  0  0  0  0999 V2000
   28.5340   14.0390    8.5970 C   0  0  0  0  0  0  0  0  0  0  0  0
   29.3000   13.3530    7.8990 C   0  0  0  0  0  0  0  0  0  0  0  0
   29.3990   13.5140    6.5850 O   0  0  0  0  0  0  0  0  0  0  0  0
   31.1650   13.3330    8.0150 N   0  0  0  0  0  0  0  0  0  0  0  0
   31.5450   11.9340    7.6020 C   0  0  0  0  0  0  0  0  0  0  0  0
   30.7220   10.8640    7.9390 C   0  0  0  0  0  0  0  0  0  0  0  0
   31.0170    9.5590    7.5720 C   0  0  0  0  0  0  0  0  0  0  0  0
   32.1560    9.3390    6.8090 C   0  0  0  0  0  0  0  0  0  0  0  0
   33.0110   10.3720    6.4380 C   0  0  0  0  0  0  0  0  0  0  0  0
   34.1980   10.0910    5.5530 O   0  0  0  0  0  0  0  0  0  0  0  0
   34.2284    8.8323    4.9516 C   0  0  0  0  0  0  0  0  0  0  0  0
   33.4779    8.7290    3.6125 C   0  0  0  0  0  0  0  0  0  0  0  0
   32.9278    9.7141    3.1169 O   0  0  0  0  0  0  0  0  0  0  0  0
   33.4558    7.4793    2.9915 N   0  0  0  0  0  0  0  0  0  0  0  0
   33.9512    6.2535    3.5993 C   0  0  0  0  0  0  0  0  0  0  0  0
   32.6330    7.3152    1.8023 C   0  0  0  0  0  0  0  0  0  0  0  0
   32.7080   11.6650    6.8730 C   0  0  0  0  0  0  0  0  0  0  0  0
   33.6520   12.7090    6.6590 N   0  0  0  0  0  0  0  0  0  0  0  0
   34.4250   13.2280    7.6390 C   0  0  0  0  0  0  0  0  0  0  0  0
   34.9120   12.5690    8.5560 O   0  0  0  0  0  0  0  0  0  0  0  0
   34.6680   14.7180    7.5670 C   0  0  0  0  0  0  0  0  0  0  0  0
   35.0470   15.1300    6.2680 O   0  0  0  0  0  0  0  0  0  0  0  0
   28.9768   14.4552    9.5677 H   0  0  0  0  0  0  0  0  0  0  0  0
   28.0901   14.9719    8.1000 H   0  0  0  0  0  0  0  0  0  0  0  0
   28.8600   15.1212    8.7822 H   0  0  0  0  0  0  0  0  0  0  0  0
   31.4476   13.9777    8.2584 H   0  0  0  0  0  0  0  0  0  0  0  0
   29.7947   11.0125    8.4976 H   0  0  0  0  0  0  0  0  0  0  0  0
   30.3782    8.7477    7.8629 H   0  0  0  0  0  0  0  0  0  0  0  0
   32.3398    8.2988    6.4924 H   0  0  0  0  0  0  0  0  0  0  0  0
   35.2901    8.6795    4.7239 H   0  0  0  0  0  0  0  0  0  0  0  0
   33.9307    8.0323    5.6384 H   0  0  0  0  0  0  0  0  0  0  0  0
   33.1323    5.7859    4.1537 H   0  0  0  0  0  0  0  0  0  0  0  0
   34.7822    6.4471    4.2801 H   0  0  0  0  0  0  0  0  0  0  0  0
   34.3015    5.5743    2.8164 H   0  0  0  0  0  0  0  0  0  0  0  0
   33.1683    6.6930    1.0789 H   0  0  0  0  0  0  0  0  0  0  0  0
   32.3969    8.2726    1.3303 H   0  0  0  0  0  0  0  0  0  0  0  0
   31.6995    6.8226    2.0904 H   0  0  0  0  0  0  0  0  0  0  0  0
   33.6890   13.0403    5.7651 H   0  0  0  0  0  0  0  0  0  0  0  0
   33.7491   15.2469    7.8389 H   0  0  0  0  0  0  0  0  0  0  0  0
   35.4672   15.0014    8.2588 H   0  0  0  0  0  0  0  0  0  0  0  0
   34.4971   15.9114    6.0550 H   0  0  0  0  0  0  0  0  0  0  0  0
  1  2  1  0
  2  3  2  0
  2  4  1  0
  4  5  1  0
  5  6  4  0
  6  7  4  0
  7  8  4  0
  8  9  4  0
  9 10  1  0
 10 11  1  0
 11 12  1  0
 12 13  2  0
 12 14  1  0
 14 15  1  0
 14 16  1  0
  9 17  4  0
 17 18  1  0
 18 19  1  0
 19 20  2  0
 19 21  1  0
 21 22  1  0
 17  5  4  0
  1 23  1  0
  1 24  1  0
  1 25  1  0
  4 26  1  0
  6 27  1  0
  7 28  1  0
  8 29  1  0
 11 30  1  0
 11 31  1  0
 15 32  1  0
 15 33  1  0
 15 34  1  0
 16 35  1  0
 16 36  1  0
 16 37  1  0
 18 38  1  0
 21 39  1  0
 21 40  1  0
 22 41  1  0
M  END
