LIG
     RDKit          3D

 37 37  0  0  0  0  0  0  0  0999 V2000
   30.1570    8.4110    8.0350 C   0  0  0  0  0  0  0  0  0  0  0  0
   31.0170    9.5590    7.5720 C   0  0  0  0  0  0  0  0  0  0  0  0
   32.1560    9.3390    6.8090 C   0  0  0  0  0  0  0  0  0  0  0  0
   33.0110   10.3720    6.4380 C   0  0  0  0  0  0  0  0  0  0  0  0
   32.7080   11.6650    6.8730 C   0  0  0  0  0  0  0  0  0  0  0  0
   33.6520   12.7090    6.6590 N   0  0  0  0  0  0  0  0  0  0  0  0
   34.4250   13.2280    7.6390 C   0  0  0  0  0  0  0  0  0  0  0  0
   34.9120   12.5690    8.5560 O   0  0  0  0  0  0  0  0  0  0  0  0
   34.6680   14.7180    7.5670 C   0  0  0  0  0  0  0  0  0  0  0  0
   35.0470   15.1300    6.2680 O   0  0  0  0  0  0  0  0  0  0  0  0
   34.8955   14.1124    5.2817 C   0  0  0  0  0  0  0  0  0  0  0  0
   36.0186   13.0583    5.3027 C   0  0  0  0  0  0  0  0  0  0  0  0
   36.9489   13.1625    6.1092 O   0  0  0  0  0  0  0  0  0  0  0  0
   35.9315   12.0043    4.4010 N   0  0  0  0  0  0  0  0  0  0  0  0
   34.8416   11.8023    3.4571 C   0  0  0  0  0  0  0  0  0  0  0  0
   36.9374   10.9591    4.4370 C   0  0  0  0  0  0  0  0  0  0  0  0
   31.5450   11.9340    7.6020 C   0  0  0  0  0  0  0  0  0  0  0  0
   30.7220   10.8640    7.9390 C   0  0  0  0  0  0  0  0  0  0  0  0
   29.4280   11.6110    9.1450 O   0  0  0  0  0  0  0  0  0  0  0  0
   29.2081    8.7883    8.4296 H   0  0  0  0  0  0  0  0  0  0  0  0
   29.2128    8.3693    7.4831 H   0  0  0  0  0  0  0  0  0  0  0  0
   29.9667    7.7261    7.2041 H   0  0  0  0  0  0  0  0  0  0  0  0
   32.4077    8.3183    6.4784 H   0  0  0  0  0  0  0  0  0  0  0  0
   33.8724   10.1707    5.8350 H   0  0  0  0  0  0  0  0  0  0  0  0
   33.7384   13.0605    5.7352 H   0  0  0  0  0  0  0  0  0  0  0  0
   33.7572   15.2267    7.9215 H   0  0  0  0  0  0  0  0  0  0  0  0
   35.4863   14.9798    8.2534 H   0  0  0  0  0  0  0  0  0  0  0  0
   33.9192   13.6307    5.3974 H   0  0  0  0  0  0  0  0  0  0  0  0
   34.9335   14.6106    4.3081 H   0  0  0  0  0  0  0  0  0  0  0  0
   34.2426   10.9534    3.7990 H   0  0  0  0  0  0  0  0  0  0  0  0
   35.2619   11.5773    2.4708 H   0  0  0  0  0  0  0  0  0  0  0  0
   34.1954   12.6752    3.3659 H   0  0  0  0  0  0  0  0  0  0  0  0
   36.4535   10.0154    4.6989 H   0  0  0  0  0  0  0  0  0  0  0  0
   37.7249   11.1660    5.1683 H   0  0  0  0  0  0  0  0  0  0  0  0
   37.3906   10.8738    3.4428 H   0  0  0  0  0  0  0  0  0  0  0  0
   31.2716   12.9232    7.9035 H   0  0  0  0  0  0  0  0  0  0  0  0
   29.0850   10.7915    9.3587 H   0  0  0  0  0  0  0  0  0  0  0  0
  1  2  1  0
  2  3  4  0
  3  4  4  0
  4  5  4  0
  5  6  1  0
  6  7  1  0
  7  8  2  0
  7  9  1  0
  9 10  1  0
 10 11  1  0
 11 12  1  0
 12 13  2  0
 12 14  1  0
 14 15  1  0
 14 16  1  0
  5 17  4  0
 17 18  4  0
 18 19  1  0
 18  2  4  0
  1 20  1  0
  1 21  1  0
  1 22  1  0
  3 23  1  0
  4 24  1  0
  6 25  1  0
  9 26  1  0
  9 27  1  0
 11 28  1  0
 11 29  1  0
 15 30  1  0
 15 31  1  0
 15 32  1  0
 16 33  1  0
 16 34  1  0
 16 35  1  0
 17 36  1  0
 19 37  1  0
M  END
$$$$
