LIG
     RDKit          3D

 42 43  0  0  0  0  0  0  0  0999 V2000
   34.1306    9.0982    5.5844 C   0  0  0  0  0  0  0  0  0  0  0  0
   33.0740    9.7530    6.4183 C   0  0  0  0  0  0  0  0  0  0  0  0
   32.1283    9.0032    7.1344 C   0  0  0  0  0  0  0  0  0  0  0  0
   31.1225    9.6231    7.8735 C   0  0  0  0  0  0  0  0  0  0  0  0
   31.0403   11.0054    7.8326 C   0  0  0  0  0  0  0  0  0  0  0  0
   29.9249   11.6691    8.3331 N   0  0  0  0  0  0  0  0  0  0  0  0
   29.3147   12.6405    7.5570 C   0  0  0  0  0  0  0  0  0  0  0  0
   29.5618   12.8582    6.3722 O   0  0  0  0  0  0  0  0  0  0  0  0
   28.2408   13.3859    8.2646 C   0  0  0  0  0  0  0  0  0  0  0  0
   28.4580   14.8170    8.1712 C   0  0  0  0  0  0  0  0  0  0  0  0
   28.5612   15.9695    8.1784 N   0  0  0  0  0  0  0  0  0  0  0  0
   32.0283   11.7643    7.2215 C   0  0  0  0  0  0  0  0  0  0  0  0
   33.0141   11.1354    6.4934 C   0  0  0  0  0  0  0  0  0  0  0  0
   33.9750   11.8649    5.8715 O   0  0  0  0  0  0  0  0  0  0  0  0
   33.4634   12.5275    4.7265 C   0  0  0  0  0  0  0  0  0  0  0  0
   33.2782   13.9642    5.1108 C   0  0  0  0  0  0  0  0  0  0  0  0
   32.1582   14.3986    5.3532 O   0  0  0  0  0  0  0  0  0  0  0  0
   34.4173   14.7209    5.2488 N   0  0  0  0  0  0  0  0  0  0  0  0
   35.0429   14.7642    6.5706 C   0  0  0  0  0  0  0  0  0  0  0  0
   36.2966   13.8907    6.6112 C   0  0  0  0  0  0  0  0  0  0  0  0
   37.2239   14.2932    5.5869 O   0  0  0  0  0  0  0  0  0  0  0  0
   36.6352   14.0881    4.2962 C   0  0  0  0  0  0  0  0  0  0  0  0
   35.3433   14.8911    4.1308 C   0  0  0  0  0  0  0  0  0  0  0  0
   33.6956    8.7210    4.6565 H   0  0  0  0  0  0  0  0  0  0  0  0
   34.9409    9.7777    5.3037 H   0  0  0  0  0  0  0  0  0  0  0  0
   34.5932    8.2784    6.1294 H   0  0  0  0  0  0  0  0  0  0  0  0
   32.1673    7.9203    7.1256 H   0  0  0  0  0  0  0  0  0  0  0  0
   30.3752    9.0143    8.3737 H   0  0  0  0  0  0  0  0  0  0  0  0
   29.3638   11.1927    9.0363 H   0  0  0  0  0  0  0  0  0  0  0  0
   27.3090   13.1109    7.7687 H   0  0  0  0  0  0  0  0  0  0  0  0
   28.1736   13.0906    9.3140 H   0  0  0  0  0  0  0  0  0  0  0  0
   31.9983   12.8475    7.2730 H   0  0  0  0  0  0  0  0  0  0  0  0
   34.1915   12.4337    3.9167 H   0  0  0  0  0  0  0  0  0  0  0  0
   32.5261   12.1125    4.3471 H   0  0  0  0  0  0  0  0  0  0  0  0
   34.3336   14.4402    7.3388 H   0  0  0  0  0  0  0  0  0  0  0  0
   35.3218   15.7973    6.7600 H   0  0  0  0  0  0  0  0  0  0  0  0
   36.7851   13.9625    7.5865 H   0  0  0  0  0  0  0  0  0  0  0  0
   36.0701   12.8374    6.4505 H   0  0  0  0  0  0  0  0  0  0  0  0
   36.4596   13.0154    4.1567 H   0  0  0  0  0  0  0  0  0  0  0  0
   37.3651   14.3981    3.5416 H   0  0  0  0  0  0  0  0  0  0  0  0
   35.6042   15.9479    4.0765 H   0  0  0  0  0  0  0  0  0  0  0  0
   34.8444   14.6316    3.1906 H   0  0  0  0  0  0  0  0  0  0  0  0
  1  2  1  0
  2  3  2  0
  3  4  1  0
  4  5  2  0
  5  6  1  0
  6  7  1  0
  7  8  2  0
  7  9  1  0
  9 10  1  0
 10 11  3  0
  5 12  1  0
 12 13  2  0
 13 14  1  0
 14 15  1  0
 15 16  1  0
 16 17  2  0
 16 18  1  0
 18 19  1  0
 19 20  1  0
 20 21  1  0
 21 22  1  0
 22 23  1  0
 13  2  1  0
 23 18  1  0
  1 24  1  0
  1 25  1  0
  1 26  1  0
  3 27  1  0
  4 28  1  0
  6 29  1  0
  9 30  1  0
  9 31  1  0
 12 32  1  0
 15 33  1  0
 15 34  1  0
 19 35  1  0
 19 36  1  0
 20 37  1  0
 20 38  1  0
 22 39  1  0
 22 40  1  0
 23 41  1  0
 23 42  1  0
M  END
