LIG
     RDKit          3D

 42 43  0  0  0  0  0  0  0  0999 V2000
   33.0648    8.4969    7.2574 C   0  0  0  0  0  0  0  0  0  0  0  0
   33.1458    9.8739    6.7549 C   0  0  0  0  0  0  0  0  0  0  0  0
   32.0354   10.3868    6.1004 C   0  0  0  0  0  0  0  0  0  0  0  0
   32.1146   11.6769    5.6403 C   0  0  0  0  0  0  0  0  0  0  0  0
   30.9635   12.3218    5.1915 N   0  0  0  0  0  0  0  0  0  0  0  0
   30.9858   13.6570    4.8126 C   0  0  0  0  0  0  0  0  0  0  0  0
   31.7516   14.1007    3.9703 O   0  0  0  0  0  0  0  0  0  0  0  0
   30.0156   14.4913    5.5317 C   0  0  0  0  0  0  0  0  0  0  0  0
   29.9290   15.9194    5.2956 C   0  0  0  0  0  0  0  0  0  0  0  0
   29.6862   17.0524    5.2382 N   0  0  0  0  0  0  0  0  0  0  0  0
   33.2751   12.4102    5.8102 C   0  0  0  0  0  0  0  0  0  0  0  0
   34.2227   11.9851    6.7027 C   0  0  0  0  0  0  0  0  0  0  0  0
   35.0204   12.8930    7.3268 O   0  0  0  0  0  0  0  0  0  0  0  0
   34.2029   13.8147    8.0739 C   0  0  0  0  0  0  0  0  0  0  0  0
   33.6999   15.0010    7.2533 C   0  0  0  0  0  0  0  0  0  0  0  0
   32.4938   15.1762    7.0894 O   0  0  0  0  0  0  0  0  0  0  0  0
   34.6532   15.7873    6.6418 N   0  0  0  0  0  0  0  0  0  0  0  0
   36.0635   15.8350    7.0133 C   0  0  0  0  0  0  0  0  0  0  0  0
   36.9279   15.2453    5.9021 C   0  0  0  0  0  0  0  0  0  0  0  0
   36.6711   15.9150    4.6569 O   0  0  0  0  0  0  0  0  0  0  0  0
   35.2855   15.7832    4.2814 C   0  0  0  0  0  0  0  0  0  0  0  0
   34.3628   16.3977    5.3466 C   0  0  0  0  0  0  0  0  0  0  0  0
   34.2455   10.6731    7.0821 C   0  0  0  0  0  0  0  0  0  0  0  0
   32.2561    8.4125    7.9635 H   0  0  0  0  0  0  0  0  0  0  0  0
   32.8944    7.8553    6.3889 H   0  0  0  0  0  0  0  0  0  0  0  0
   33.9967    8.1766    7.7312 H   0  0  0  0  0  0  0  0  0  0  0  0
   31.1442    9.7829    5.9643 H   0  0  0  0  0  0  0  0  0  0  0  0
   30.0790   11.8724    5.3728 H   0  0  0  0  0  0  0  0  0  0  0  0
   30.2999   14.4264    6.5764 H   0  0  0  0  0  0  0  0  0  0  0  0
   29.0626   14.0407    5.2556 H   0  0  0  0  0  0  0  0  0  0  0  0
   33.3739   13.4057    5.4016 H   0  0  0  0  0  0  0  0  0  0  0  0
   34.7961   14.1881    8.9151 H   0  0  0  0  0  0  0  0  0  0  0  0
   33.3445   13.3187    8.5394 H   0  0  0  0  0  0  0  0  0  0  0  0
   36.2604   15.3383    7.9643 H   0  0  0  0  0  0  0  0  0  0  0  0
   36.3094   16.8961    7.1420 H   0  0  0  0  0  0  0  0  0  0  0  0
   36.7484   14.1733    5.7689 H   0  0  0  0  0  0  0  0  0  0  0  0
   37.9876   15.3808    6.1391 H   0  0  0  0  0  0  0  0  0  0  0  0
   35.1501   16.3021    3.3275 H   0  0  0  0  0  0  0  0  0  0  0  0
   35.0623   14.7220    4.1230 H   0  0  0  0  0  0  0  0  0  0  0  0
   33.3143   16.2652    5.0657 H   0  0  0  0  0  0  0  0  0  0  0  0
   34.5663   17.4698    5.4468 H   0  0  0  0  0  0  0  0  0  0  0  0
   35.0378   10.3029    7.7279 H   0  0  0  0  0  0  0  0  0  0  0  0
  1  2  1  0
  2  3  2  0
  3  4  1  0
  4  5  1  0
  5  6  1  0
  6  7  2  0
  6  8  1  0
  8  9  1  0
  9 10  3  0
  4 11  2  0
 11 12  1  0
 12 13  1  0
 13 14  1  0
 14 15  1  0
 15 16  2  0
 15 17  1  0
 17 18  1  0
 18 19  1  0
 19 20  1  0
 20 21  1  0
 21 22  1  0
 12 23  2  0
 23  2  1  0
 22 17  1  0
  1 24  1  0
  1 25  1  0
  1 26  1  0
  3 27  1  0
  5 28  1  0
  8 29  1  0
  8 30  1  0
 11 31  1  0
 14 32  1  0
 14 33  1  0
 18 34  1  0
 18 35  1  0
 19 36  1  0
 19 37  1  0
 21 38  1  0
 21 39  1  0
 22 40  1  0
 22 41  1  0
 23 42  1  0
M  END
