LIG
     RDKit          3D

 47 48  0  0  0  0  0  0  0  0999 V2000
   34.2380    9.6840    4.9362 C   0  0  0  0  0  0  0  0  0  0  0  0
   33.1458   10.3182    5.7428 C   0  0  0  0  0  0  0  0  0  0  0  0
   32.4100    9.4981    6.6097 C   0  0  0  0  0  0  0  0  0  0  0  0
   31.4239   10.0142    7.4576 C   0  0  0  0  0  0  0  0  0  0  0  0
   30.6782    9.0702    8.3615 C   0  0  0  0  0  0  0  0  0  0  0  0
   31.1456   11.3852    7.4164 C   0  0  0  0  0  0  0  0  0  0  0  0
   30.1116   11.8016    8.2054 O   0  0  0  0  0  0  0  0  0  0  0  0
   29.7603   13.1731    8.2445 C   0  0  0  0  0  0  0  0  0  0  0  0
   30.6383   13.9887    9.2073 C   0  0  0  0  0  0  0  0  0  0  0  0
   31.8613   14.0464    9.0457 O   0  0  0  0  0  0  0  0  0  0  0  0
   30.0337   14.6960   10.2379 N   0  0  0  0  0  0  0  0  0  0  0  0
   28.6307   14.5792   10.5716 C   0  0  0  0  0  0  0  0  0  0  0  0
   30.8825   15.3824   11.1936 C   0  0  0  0  0  0  0  0  0  0  0  0
   31.8914   12.2108    6.5700 C   0  0  0  0  0  0  0  0  0  0  0  0
   32.8458   11.6812    5.6944 C   0  0  0  0  0  0  0  0  0  0  0  0
   33.4179   12.5790    4.7685 N   0  0  0  0  0  0  0  0  0  0  0  0
   33.3974   12.3469    3.4018 C   0  0  0  0  0  0  0  0  0  0  0  0
   33.0655   11.3037    2.8474 O   0  0  0  0  0  0  0  0  0  0  0  0
   33.7977   13.5691    2.5797 C   0  0  0  0  0  0  0  0  0  0  0  0
   35.2431   13.4943    2.1319 C   0  0  0  0  0  0  0  0  0  0  0  0
   35.5977   14.9500    1.9924 C   0  0  0  0  0  0  0  0  0  0  0  0
   34.8536   15.5575    3.1586 C   0  0  0  0  0  0  0  0  0  0  0  0
   33.6460   14.7919    3.3264 O   0  0  0  0  0  0  0  0  0  0  0  0
   33.8449    9.2540    4.0118 H   0  0  0  0  0  0  0  0  0  0  0  0
   34.7096    8.8723    5.4993 H   0  0  0  0  0  0  0  0  0  0  0  0
   35.0349   10.3956    4.6993 H   0  0  0  0  0  0  0  0  0  0  0  0
   32.6267    8.4318    6.6405 H   0  0  0  0  0  0  0  0  0  0  0  0
   31.2724    8.1751    8.5632 H   0  0  0  0  0  0  0  0  0  0  0  0
   29.7323    8.7675    7.9089 H   0  0  0  0  0  0  0  0  0  0  0  0
   30.4716    9.5317    9.3296 H   0  0  0  0  0  0  0  0  0  0  0  0
   28.7091   13.2066    8.5314 H   0  0  0  0  0  0  0  0  0  0  0  0
   29.7751   13.6437    7.2549 H   0  0  0  0  0  0  0  0  0  0  0  0
   28.4562   14.9431   11.5860 H   0  0  0  0  0  0  0  0  0  0  0  0
   28.0516   15.1635    9.8514 H   0  0  0  0  0  0  0  0  0  0  0  0
   28.2870   13.5475   10.5273 H   0  0  0  0  0  0  0  0  0  0  0  0
   30.6115   16.4354   11.2512 H   0  0  0  0  0  0  0  0  0  0  0  0
   30.7299   14.9186   12.1652 H   0  0  0  0  0  0  0  0  0  0  0  0
   31.9408   15.3231   10.9374 H   0  0  0  0  0  0  0  0  0  0  0  0
   31.7088   13.2764    6.5292 H   0  0  0  0  0  0  0  0  0  0  0  0
   33.3745   13.5711    4.9871 H   0  0  0  0  0  0  0  0  0  0  0  0
   33.1177   13.6404    1.7226 H   0  0  0  0  0  0  0  0  0  0  0  0
   35.8724   13.0230    2.8971 H   0  0  0  0  0  0  0  0  0  0  0  0
   35.3681   12.9288    1.2039 H   0  0  0  0  0  0  0  0  0  0  0  0
   35.2005   15.3408    1.0482 H   0  0  0  0  0  0  0  0  0  0  0  0
   36.6725   15.1464    2.0217 H   0  0  0  0  0  0  0  0  0  0  0  0
   35.4329   15.4674    4.0832 H   0  0  0  0  0  0  0  0  0  0  0  0
   34.6002   16.6074    2.9910 H   0  0  0  0  0  0  0  0  0  0  0  0
  1  2  1  0
  2  3  2  0
  3  4  1  0
  4  5  1  0
  4  6  2  0
  6  7  1  0
  7  8  1  0
  8  9  1  0
  9 10  2  0
  9 11  1  0
 11 12  1  0
 11 13  1  0
  6 14  1  0
 14 15  2  0
 15 16  1  0
 16 17  1  0
 17 18  2  0
 17 19  1  0
 19 20  1  0
 20 21  1  0
 21 22  1  0
 22 23  1  0
 15  2  1  0
 23 19  1  0
  1 24  1  0
  1 25  1  0
  1 26  1  0
  3 27  1  0
  5 28  1  0
  5 29  1  0
  5 30  1  0
  8 31  1  0
  8 32  1  0
 12 33  1  0
 12 34  1  0
 12 35  1  0
 13 36  1  0
 13 37  1  0
 13 38  1  0
 14 39  1  0
 16 40  1  0
 19 41  1  0
 20 42  1  0
 20 43  1  0
 21 44  1  0
 21 45  1  0
 22 46  1  0
 22 47  1  0
M  END
