LIG
     RDKit          3D

 35 36  0  0  0  0  0  0  0  0999 V2000
   32.7340    8.7720    6.5300 C   0  0  0  0  0  0  0  0  0  0  0  0
   33.2630    9.6380    5.6520 N   0  0  0  0  0  0  0  0  0  0  0  0
   31.7660    9.0980    7.4680 N   0  0  0  0  0  0  0  0  0  0  0  0
   31.3460   10.4150    7.4890 C   0  0  0  0  0  0  0  0  0  0  0  0
   31.8610   11.3420    6.6030 C   0  0  0  0  0  0  0  0  0  0  0  0
   30.3770   11.5810    8.3040 N   0  0  0  0  0  0  0  0  0  0  0  0
   29.7090   12.5130    7.5840 C   0  0  0  0  0  0  0  0  0  0  0  0
   29.9180   12.6920    6.3980 O   0  0  0  0  0  0  0  0  0  0  0  0
   28.7130   13.3600    8.3510 C   0  0  0  0  0  0  0  0  0  0  0  0
   28.5830   14.6820    7.7450 C   0  0  0  0  0  0  0  0  0  0  0  0
   28.5580   15.7160    7.2730 N   0  0  0  0  0  0  0  0  0  0  0  0
   32.8210   10.9050    5.6820 C   0  0  0  0  0  0  0  0  0  0  0  0
   33.3300   11.7430    4.6780 N   0  0  0  0  0  0  0  0  0  0  0  0
   33.5900   13.0680    4.7540 C   0  0  0  0  0  0  0  0  0  0  0  0
   33.4420   13.7460    5.7670 O   0  0  0  0  0  0  0  0  0  0  0  0
   34.1200   13.7080    3.4770 C   0  0  0  0  0  0  0  0  0  0  0  0
   33.0230   14.1560    2.5380 C   0  0  0  0  0  0  0  0  0  0  0  0
   33.7650   14.2490    1.2210 C   0  0  0  0  0  0  0  0  0  0  0  0
   34.7960   13.1450    1.3220 C   0  0  0  0  0  0  0  0  0  0  0  0
   34.9020   12.7780    2.7050 O   0  0  0  0  0  0  0  0  0  0  0  0
   33.4326    8.5708    7.3720 H   0  0  0  0  0  0  0  0  0  0  0  0
   32.6069    9.2195    7.5381 H   0  0  0  0  0  0  0  0  0  0  0  0
   33.3495    7.8521    6.6027 H   0  0  0  0  0  0  0  0  0  0  0  0
   30.5691   10.6060    8.2949 H   0  0  0  0  0  0  0  0  0  0  0  0
   30.7005   11.0474    8.6958 H   0  0  0  0  0  0  0  0  0  0  0  0
   29.0553   13.4391    9.3907 H   0  0  0  0  0  0  0  0  0  0  0  0
   27.7446   12.8440    8.3796 H   0  0  0  0  0  0  0  0  0  0  0  0
   33.7715   11.2404    3.8876 H   0  0  0  0  0  0  0  0  0  0  0  0
   34.7540   14.5524    3.7578 H   0  0  0  0  0  0  0  0  0  0  0  0
   32.6760   15.1561    2.8218 H   0  0  0  0  0  0  0  0  0  0  0  0
   32.1533   13.4976    2.4899 H   0  0  0  0  0  0  0  0  0  0  0  0
   34.2135   15.2351    1.0413 H   0  0  0  0  0  0  0  0  0  0  0  0
   33.0736   14.0429    0.3897 H   0  0  0  0  0  0  0  0  0  0  0  0
   35.7827   13.4946    0.9942 H   0  0  0  0  0  0  0  0  0  0  0  0
   34.5278   12.2650    0.7272 H   0  0  0  0  0  0  0  0  0  0  0  0
  1  2  1  0
  2  3  4  0
  3  4  4  0
  4  5  4  0
  5  6  1  0
  6  7  1  0
  7  8  2  0
  7  9  1  0
  9 10  1  0
 10 11  3  0
  5 12  4  0
 12 13  1  0
 13 14  1  0
 14 15  2  0
 14 16  1  0
 16 17  1  0
 17 18  1  0
 18 19  1  0
 19 20  1  0
 12  2  4  0
 20 16  1  0
  1 21  1  0
  1 22  1  0
  1 23  1  0
  4 24  1  0
  6 25  1  0
  9 26  1  0
  9 27  1  0
 13 28  1  0
 16 29  1  0
 17 30  1  0
 17 31  1  0
 18 32  1  0
 18 33  1  0
 19 34  1  0
 19 35  1  0
M  END
$$$$
