LIG
     RDKit          3D

 35 36  0  0  0  0  0  0  0  0999 V2000
    2.0174   -2.2675    2.2677 C   0  0  0  0  0  0  0  0  0  0  0  0
    0.6212   -1.9218    2.1289 N   0  0  0  0  0  0  0  0  0  0  0  0
   -0.2842   -2.6021    2.8523 N   0  0  0  0  0  0  0  0  0  0  0  0
   -1.4467   -2.0554    2.4924 C   0  0  0  0  0  0  0  0  0  0  0  0
   -1.2887   -1.0186    1.5458 C   0  0  0  0  0  0  0  0  0  0  0  0
   -2.2434   -0.2248    0.9374 N   0  0  0  0  0  0  0  0  0  0  0  0
   -3.6046   -0.3186    1.1369 C   0  0  0  0  0  0  0  0  0  0  0  0
   -4.1631   -1.1121    1.8908 O   0  0  0  0  0  0  0  0  0  0  0  0
   -4.3976    0.6764    0.3234 C   0  0  0  0  0  0  0  0  0  0  0  0
   -4.7762    0.0887   -0.9597 C   0  0  0  0  0  0  0  0  0  0  0  0
   -5.0726   -0.3420   -1.9963 N   0  0  0  0  0  0  0  0  0  0  0  0
    0.0782   -0.9414    1.3202 C   0  0  0  0  0  0  0  0  0  0  0  0
    0.8833   -0.1457    0.5152 N   0  0  0  0  0  0  0  0  0  0  0  0
    0.4516    0.8483   -0.3462 C   0  0  0  0  0  0  0  0  0  0  0  0
   -0.7085    1.2186   -0.5149 O   0  0  0  0  0  0  0  0  0  0  0  0
    1.6362    1.5147   -1.0655 C   0  0  0  0  0  0  0  0  0  0  0  0
    1.3243    1.8389   -2.5170 C   0  0  0  0  0  0  0  0  0  0  0  0
    2.6735    1.7037   -3.1753 C   0  0  0  0  0  0  0  0  0  0  0  0
    3.2773    0.5484   -2.4117 C   0  0  0  0  0  0  0  0  0  0  0  0
    2.8041    0.6660   -1.0611 O   0  0  0  0  0  0  0  0  0  0  0  0
    2.5581   -1.3850    2.6183 H   0  0  0  0  0  0  0  0  0  0  0  0
    2.3909   -2.5902    1.2927 H   0  0  0  0  0  0  0  0  0  0  0  0
    2.1254   -3.0791    2.9922 H   0  0  0  0  0  0  0  0  0  0  0  0
   -2.3586   -2.4360    2.9349 H   0  0  0  0  0  0  0  0  0  0  0  0
   -1.8747    0.4549    0.2703 H   0  0  0  0  0  0  0  0  0  0  0  0
   -5.2846    0.9609    0.9000 H   0  0  0  0  0  0  0  0  0  0  0  0
   -3.8134    1.5911    0.1751 H   0  0  0  0  0  0  0  0  0  0  0  0
    1.8867   -0.3189    0.4847 H   0  0  0  0  0  0  0  0  0  0  0  0
    1.8965    2.4222   -0.5084 H   0  0  0  0  0  0  0  0  0  0  0  0
    0.6256    1.1089   -2.9440 H   0  0  0  0  0  0  0  0  0  0  0  0
    0.8825    2.8321   -2.6406 H   0  0  0  0  0  0  0  0  0  0  0  0
    3.2604    2.6138   -3.0037 H   0  0  0  0  0  0  0  0  0  0  0  0
    2.6209    1.5250   -4.2522 H   0  0  0  0  0  0  0  0  0  0  0  0
    2.9323   -0.4138   -2.8055 H   0  0  0  0  0  0  0  0  0  0  0  0
    4.3706    0.5602   -2.4210 H   0  0  0  0  0  0  0  0  0  0  0  0
  1  2  1  0
  2  3  1  0
  3  4  2  0
  4  5  1  0
  5  6  1  0
  6  7  1  0
  7  8  2  0
  7  9  1  0
  9 10  1  0
 10 11  3  0
  5 12  2  0
 12 13  1  0
 13 14  1  0
 14 15  2  0
 14 16  1  0
 16 17  1  0
 17 18  1  0
 18 19  1  0
 19 20  1  0
 12  2  1  0
 20 16  1  0
  1 21  1  0
  1 22  1  0
  1 23  1  0
  4 24  1  0
  6 25  1  0
  9 26  1  0
  9 27  1  0
 13 28  1  0
 16 29  1  0
 17 30  1  0
 17 31  1  0
 18 32  1  0
 18 33  1  0
 19 34  1  0
 19 35  1  0
M  END
