LIG
     RDKit          3D

 41 42  0  0  0  0  0  0  0  0999 V2000
   30.6589    8.2342    8.1803 C   0  0  0  0  0  0  0  0  0  0  0  0
   31.3085    9.4309    7.5917 C   0  0  0  0  0  0  0  0  0  0  0  0
   32.2922    9.3777    6.5977 C   0  0  0  0  0  0  0  0  0  0  0  0
   32.9740   10.5282    6.1734 C   0  0  0  0  0  0  0  0  0  0  0  0
   34.0361   10.3971    5.1208 C   0  0  0  0  0  0  0  0  0  0  0  0
   32.7109   11.7261    6.8468 C   0  0  0  0  0  0  0  0  0  0  0  0
   33.5415   12.8494    6.6539 N   0  0  0  0  0  0  0  0  0  0  0  0
   34.2117   13.4226    7.7386 C   0  0  0  0  0  0  0  0  0  0  0  0
   34.0653   13.0920    8.9160 O   0  0  0  0  0  0  0  0  0  0  0  0
   35.1729   14.5319    7.3561 C   0  0  0  0  0  0  0  0  0  0  0  0
   35.9198   14.2548    5.7246 S   0  0  0  0  0  0  0  0  0  0  0  0
   31.6730   11.7641    7.7836 C   0  0  0  0  0  0  0  0  0  0  0  0
   31.3721   12.8629    8.5175 O   0  0  0  0  0  0  0  0  0  0  0  0
   30.4406   13.6727    7.8567 C   0  0  0  0  0  0  0  0  0  0  0  0
   29.0553   13.0904    7.5870 C   0  0  0  0  0  0  0  0  0  0  0  0
   28.2120   14.3333    7.6498 C   0  0  0  0  0  0  0  0  0  0  0  0
   28.7536   15.0359    8.7832 N   0  0  0  0  0  0  0  0  0  0  0  0
   28.0940   14.8979   10.0419 C   0  0  0  0  0  0  0  0  0  0  0  0
   30.1303   14.7741    8.8560 C   0  0  0  0  0  0  0  0  0  0  0  0
   30.9005   15.3126    9.6410 O   0  0  0  0  0  0  0  0  0  0  0  0
   30.9666   10.6382    8.1399 C   0  0  0  0  0  0  0  0  0  0  0  0
   30.9563    8.1138    9.2262 H   0  0  0  0  0  0  0  0  0  0  0  0
   29.5689    8.2981    8.1270 H   0  0  0  0  0  0  0  0  0  0  0  0
   30.9971    7.3751    7.6212 H   0  0  0  0  0  0  0  0  0  0  0  0
   32.5832    8.4122    6.1947 H   0  0  0  0  0  0  0  0  0  0  0  0
   34.0841    9.3793    4.7192 H   0  0  0  0  0  0  0  0  0  0  0  0
   33.8134   11.0661    4.2830 H   0  0  0  0  0  0  0  0  0  0  0  0
   35.0220   10.6436    5.5220 H   0  0  0  0  0  0  0  0  0  0  0  0
   34.1233   12.8566    5.8212 H   0  0  0  0  0  0  0  0  0  0  0  0
   34.6443   15.4813    7.3510 H   0  0  0  0  0  0  0  0  0  0  0  0
   35.9710   14.5684    8.1018 H   0  0  0  0  0  0  0  0  0  0  0  0
   36.6521   13.1913    6.0947 H   0  0  0  0  0  0  0  0  0  0  0  0
   30.8681   14.0462    6.9329 H   0  0  0  0  0  0  0  0  0  0  0  0
   28.9879   12.5829    6.6203 H   0  0  0  0  0  0  0  0  0  0  0  0
   28.7592   12.3854    8.3672 H   0  0  0  0  0  0  0  0  0  0  0  0
   28.3782   14.9529    6.7625 H   0  0  0  0  0  0  0  0  0  0  0  0
   27.1464   14.1433    7.7545 H   0  0  0  0  0  0  0  0  0  0  0  0
   27.9136   13.8372   10.2381 H   0  0  0  0  0  0  0  0  0  0  0  0
   27.1509   15.4298    9.9678 H   0  0  0  0  0  0  0  0  0  0  0  0
   28.7070   15.2467   10.8746 H   0  0  0  0  0  0  0  0  0  0  0  0
   30.2193   10.6834    8.9237 H   0  0  0  0  0  0  0  0  0  0  0  0
  1  2  1  0
  2  3  2  0
  3  4  1  0
  4  5  1  0
  4  6  2  0
  6  7  1  0
  7  8  1  0
  8  9  2  0
  8 10  1  0
 10 11  1  0
  6 12  1  0
 12 13  1  0
 13 14  1  0
 14 15  1  0
 15 16  1  0
 16 17  1  0
 17 18  1  0
 17 19  1  0
 19 20  2  0
 12 21  2  0
 21  2  1  0
 19 14  1  0
  1 22  1  0
  1 23  1  0
  1 24  1  0
  3 25  1  0
  5 26  1  0
  5 27  1  0
  5 28  1  0
  7 29  1  0
 10 30  1  0
 10 31  1  0
 11 32  1  0
 14 33  1  0
 15 34  1  0
 15 35  1  0
 16 36  1  0
 16 37  1  0
 18 38  1  0
 18 39  1  0
 18 40  1  0
 21 41  1  0
M  END
