LIG
     RDKit          3D

 44 45  0  0  0  0  0  0  0  0999 V2000
   31.2623    8.6076    8.0780 C   0  0  0  0  0  0  0  0  0  0  0  0
   31.4183    9.9793    7.5258 C   0  0  0  0  0  0  0  0  0  0  0  0
   32.4063   10.3253    6.5845 C   0  0  0  0  0  0  0  0  0  0  0  0
   32.4386   11.6090    6.0478 C   0  0  0  0  0  0  0  0  0  0  0  0
   33.4075   11.9630    5.0864 N   0  0  0  0  0  0  0  0  0  0  0  0
   33.6406   13.2558    4.6417 C   0  0  0  0  0  0  0  0  0  0  0  0
   33.1585   14.2770    5.1302 O   0  0  0  0  0  0  0  0  0  0  0  0
   34.5846   13.3480    3.4414 C   0  0  0  0  0  0  0  0  0  0  0  0
   34.0787   14.4039    2.4640 C   0  0  0  0  0  0  0  0  0  0  0  0
   34.6118   13.9093    1.1479 C   0  0  0  0  0  0  0  0  0  0  0  0
   34.4980   12.4120    1.3104 C   0  0  0  0  0  0  0  0  0  0  0  0
   34.6984   12.1227    2.7028 O   0  0  0  0  0  0  0  0  0  0  0  0
   31.4263   12.4904    6.4157 C   0  0  0  0  0  0  0  0  0  0  0  0
   30.4596   12.1555    7.3552 C   0  0  0  0  0  0  0  0  0  0  0  0
   29.4249   13.0235    7.5131 O   0  0  0  0  0  0  0  0  0  0  0  0
   29.2081   13.5186    8.8157 C   0  0  0  0  0  0  0  0  0  0  0  0
   30.3725   14.1472    9.6185 C   0  0  0  0  0  0  0  0  0  0  0  0
   31.5603   13.9435    9.3757 O   0  0  0  0  0  0  0  0  0  0  0  0
   29.9964   15.0496   10.6246 N   0  0  0  0  0  0  0  0  0  0  0  0
   28.8736   14.7056   11.4603 C   0  0  0  0  0  0  0  0  0  0  0  0
   31.0652   15.7813   11.2767 C   0  0  0  0  0  0  0  0  0  0  0  0
   30.4819   10.9160    7.9429 C   0  0  0  0  0  0  0  0  0  0  0  0
   31.4471    8.5787    9.1501 H   0  0  0  0  0  0  0  0  0  0  0  0
   30.2433    8.2456    7.9198 H   0  0  0  0  0  0  0  0  0  0  0  0
   31.9497    7.9176    7.5860 H   0  0  0  0  0  0  0  0  0  0  0  0
   33.1331    9.5794    6.2721 H   0  0  0  0  0  0  0  0  0  0  0  0
   34.0291   11.2456    4.7263 H   0  0  0  0  0  0  0  0  0  0  0  0
   35.5835   13.6024    3.8139 H   0  0  0  0  0  0  0  0  0  0  0  0
   32.9819   14.4250    2.4335 H   0  0  0  0  0  0  0  0  0  0  0  0
   34.4233   15.4110    2.7179 H   0  0  0  0  0  0  0  0  0  0  0  0
   35.6655   14.1946    1.0455 H   0  0  0  0  0  0  0  0  0  0  0  0
   34.0677   14.2894    0.2796 H   0  0  0  0  0  0  0  0  0  0  0  0
   35.2328   11.8659    0.7123 H   0  0  0  0  0  0  0  0  0  0  0  0
   33.4969   12.0594    1.0394 H   0  0  0  0  0  0  0  0  0  0  0  0
   31.3217   13.4625    5.9515 H   0  0  0  0  0  0  0  0  0  0  0  0
   28.4874   14.3340    8.6680 H   0  0  0  0  0  0  0  0  0  0  0  0
   28.6699   12.7746    9.3959 H   0  0  0  0  0  0  0  0  0  0  0  0
   27.9668   14.5809   10.8670 H   0  0  0  0  0  0  0  0  0  0  0  0
   29.0970   13.7782   11.9783 H   0  0  0  0  0  0  0  0  0  0  0  0
   28.7267   15.4685   12.2237 H   0  0  0  0  0  0  0  0  0  0  0  0
   30.6895   16.7253   11.6753 H   0  0  0  0  0  0  0  0  0  0  0  0
   31.8833   15.9973   10.5879 H   0  0  0  0  0  0  0  0  0  0  0  0
   31.4477   15.1874   12.0970 H   0  0  0  0  0  0  0  0  0  0  0  0
   29.7214   10.6323    8.6547 H   0  0  0  0  0  0  0  0  0  0  0  0
  1  2  1  0
  2  3  2  0
  3  4  1  0
  4  5  1  0
  5  6  1  0
  6  7  2  0
  6  8  1  0
  8  9  1  0
  9 10  1  0
 10 11  1  0
 11 12  1  0
  4 13  2  0
 13 14  1  0
 14 15  1  0
 15 16  1  0
 16 17  1  0
 17 18  2  0
 17 19  1  0
 19 20  1  0
 19 21  1  0
 14 22  2  0
 22  2  1  0
 12  8  1  0
  1 23  1  0
  1 24  1  0
  1 25  1  0
  3 26  1  0
  5 27  1  0
  8 28  1  0
  9 29  1  0
  9 30  1  0
 10 31  1  0
 10 32  1  0
 11 33  1  0
 11 34  1  0
 13 35  1  0
 16 36  1  0
 16 37  1  0
 20 38  1  0
 20 39  1  0
 20 40  1  0
 21 41  1  0
 21 42  1  0
 21 43  1  0
 22 44  1  0
M  END
