LIG
     RDKit          3D

 41 43  0  0  0  0  0  0  0  0999 V2000
   28.4820   16.7650    9.7690 C   0  0  0  0  0  0  0  0  0  0  0  0
   28.8690   15.5850    9.0100 N   0  0  0  0  0  0  0  0  0  0  0  0
   27.8900   14.7750    8.3110 C   0  0  0  0  0  0  0  0  0  0  0  0
   28.5940   13.4330    8.1660 C   0  0  0  0  0  0  0  0  0  0  0  0
   30.0580   13.6540    8.5870 C   0  0  0  0  0  0  0  0  0  0  0  0
   30.9510   13.3300    7.5050 O   0  0  0  0  0  0  0  0  0  0  0  0
   31.3600   12.0190    7.3410 C   0  0  0  0  0  0  0  0  0  0  0  0
   32.3710   11.8060    6.4170 C   0  0  0  0  0  0  0  0  0  0  0  0
   32.8360   10.5190    6.2010 N   0  0  0  0  0  0  0  0  0  0  0  0
   32.2980    9.4490    6.8970 C   0  0  0  0  0  0  0  0  0  0  0  0
   31.3020    9.7050    7.8000 C   0  0  0  0  0  0  0  0  0  0  0  0
   30.7370    8.6550    8.4540 N   0  0  0  0  0  0  0  0  0  0  0  0
   33.4839   11.6143    5.0083 C   0  0  0  0  0  0  0  0  0  0  0  0
   34.2840   12.0409    5.8350 O   0  0  0  0  0  0  0  0  0  0  0  0
   34.7960   13.1450    1.3220 C   0  0  0  0  0  0  0  0  0  0  0  0
   33.7650   14.2490    1.2210 C   0  0  0  0  0  0  0  0  0  0  0  0
   33.0230   14.1560    2.5380 C   0  0  0  0  0  0  0  0  0  0  0  0
   34.1200   13.7080    3.4770 C   0  0  0  0  0  0  0  0  0  0  0  0
   34.9020   12.7780    2.7050 O   0  0  0  0  0  0  0  0  0  0  0  0
   30.8090   10.9600    8.0540 C   0  0  0  0  0  0  0  0  0  0  0  0
   30.1260   15.1410    8.9140 C   0  0  0  0  0  0  0  0  0  0  0  0
   31.1310   15.8110    9.0820 O   0  0  0  0  0  0  0  0  0  0  0  0
   27.3998   16.7446    9.9108 H   0  0  0  0  0  0  0  0  0  0  0  0
   28.7708   17.6545    9.2069 H   0  0  0  0  0  0  0  0  0  0  0  0
   27.7897   17.3759    9.1875 H   0  0  0  0  0  0  0  0  0  0  0  0
   26.9950   14.6978    8.9335 H   0  0  0  0  0  0  0  0  0  0  0  0
   27.6446   15.2207    7.3458 H   0  0  0  0  0  0  0  0  0  0  0  0
   28.5493   13.0911    7.1133 H   0  0  0  0  0  0  0  0  0  0  0  0
   28.1056   12.6386    8.7590 H   0  0  0  0  0  0  0  0  0  0  0  0
   30.2897   13.0824    9.4786 H   0  0  0  0  0  0  0  0  0  0  0  0
   32.8323   12.5451    5.8311 H   0  0  0  0  0  0  0  0  0  0  0  0
   32.7041    8.5190    6.6707 H   0  0  0  0  0  0  0  0  0  0  0  0
   29.7146    8.6385    8.5186 H   0  0  0  0  0  0  0  0  0  0  0  0
   35.7904   13.4921    0.9953 H   0  0  0  0  0  0  0  0  0  0  0  0
   33.0901   14.1723    0.3555 H   0  0  0  0  0  0  0  0  0  0  0  0
   34.2684   15.2278    1.1608 H   0  0  0  0  0  0  0  0  0  0  0  0
   32.2470   13.3883    2.4741 H   0  0  0  0  0  0  0  0  0  0  0  0
   32.5556   15.0921    2.8427 H   0  0  0  0  0  0  0  0  0  0  0  0
   34.7668   14.5335    3.7528 H   0  0  0  0  0  0  0  0  0  0  0  0
   33.7395   13.2202    4.3650 H   0  0  0  0  0  0  0  0  0  0  0  0
   30.0323   11.1587    8.7607 H   0  0  0  0  0  0  0  0  0  0  0  0
  1  2  1  0
  2  3  1  0
  3  4  1  0
  4  5  1  0
  5  6  1  0
  6  7  1  0
  7  8  4  0
  8  9  4  0
  9 10  4  0
 10 11  4  0
 11 12  1  0
 12 13  1  0
 13 14  2  0
 13 15  1  0
 15 16  1  0
 16 17  1  0
 17 18  1  0
 18 19  1  0
 11 20  4  0
  5 21  1  0
 21 22  2  0
 21  2  1  0
 20  7  4  0
 19 15  1  0
  1 23  1  0
  1 24  1  0
  1 25  1  0
  3 26  1  0
  3 27  1  0
  4 28  1  0
  4 29  1  0
  5 30  1  0
  8 31  1  0
 10 32  1  0
 12 33  1  0
 15 34  1  0
 16 35  1  0
 16 36  1  0
 17 37  1  0
 17 38  1  0
 18 39  1  0
 18 40  1  0
 20 41  1  0
M  END
