LIG
     RDKit          3D

 34 34  0  0  0  0  0  0  0  0999 V2000
   30.9125   15.7894   11.3611 C   0  0  0  0  0  0  0  0  0  0  0  0
   29.8687   15.0643   10.6523 N   0  0  0  0  0  0  0  0  0  0  0  0
   28.7264   14.6951   11.4426 C   0  0  0  0  0  0  0  0  0  0  0  0
   30.3274   14.1410    9.7126 C   0  0  0  0  0  0  0  0  0  0  0  0
   31.5399   13.9931    9.5753 O   0  0  0  0  0  0  0  0  0  0  0  0
   29.2879   13.4335    8.7983 C   0  0  0  0  0  0  0  0  0  0  0  0
   29.4221   12.0559    8.4945 O   0  0  0  0  0  0  0  0  0  0  0  0
   30.5075   11.6234    7.8028 C   0  0  0  0  0  0  0  0  0  0  0  0
   30.6832   10.2399    7.7216 C   0  0  0  0  0  0  0  0  0  0  0  0
   31.7053    9.6994    6.9359 C   0  0  0  0  0  0  0  0  0  0  0  0
   32.5962   10.5474    6.2988 C   0  0  0  0  0  0  0  0  0  0  0  0
   33.5414   10.0490    5.4944 F   0  0  0  0  0  0  0  0  0  0  0  0
   32.5431   11.9067    6.5565 C   0  0  0  0  0  0  0  0  0  0  0  0
   33.6510   12.7369    6.3115 N   0  0  0  0  0  0  0  0  0  0  0  0
   34.2674   13.3404    7.4112 C   0  0  0  0  0  0  0  0  0  0  0  0
   33.9849   13.0816    8.5853 O   0  0  0  0  0  0  0  0  0  0  0  0
   35.3561   14.3433    7.1064 C   0  0  0  0  0  0  0  0  0  0  0  0
   35.6388   14.6221    5.3426 S   0  0  0  0  0  0  0  0  0  0  0  0
   31.4413   12.4499    7.2056 C   0  0  0  0  0  0  0  0  0  0  0  0
   31.3474   15.1353   12.1072 H   0  0  0  0  0  0  0  0  0  0  0  0
   31.7023   16.1148   10.6805 H   0  0  0  0  0  0  0  0  0  0  0  0
   30.5046   16.6719   11.8558 H   0  0  0  0  0  0  0  0  0  0  0  0
   28.8565   13.6947   11.8387 H   0  0  0  0  0  0  0  0  0  0  0  0
   28.6283   15.3696   12.2932 H   0  0  0  0  0  0  0  0  0  0  0  0
   27.8238   14.7293   10.8323 H   0  0  0  0  0  0  0  0  0  0  0  0
   29.2307   14.0133    7.8670 H   0  0  0  0  0  0  0  0  0  0  0  0
   28.2925   13.5288    9.2334 H   0  0  0  0  0  0  0  0  0  0  0  0
   29.9937    9.5695    8.2303 H   0  0  0  0  0  0  0  0  0  0  0  0
   31.8172    8.6245    6.8431 H   0  0  0  0  0  0  0  0  0  0  0  0
   34.3407   12.4011    5.6424 H   0  0  0  0  0  0  0  0  0  0  0  0
   35.0714   15.2886    7.5691 H   0  0  0  0  0  0  0  0  0  0  0  0
   36.2845   13.9843    7.5587 H   0  0  0  0  0  0  0  0  0  0  0  0
   35.5717   15.9696    5.3851 H   0  0  0  0  0  0  0  0  0  0  0  0
   31.3922   13.5263    7.2885 H   0  0  0  0  0  0  0  0  0  0  0  0
  1  2  1  0
  2  3  1  0
  2  4  1  0
  4  5  2  0
  4  6  1  0
  6  7  1  0
  7  8  1  0
  8  9  2  0
  9 10  1  0
 10 11  2  0
 11 12  1  0
 11 13  1  0
 13 14  1  0
 14 15  1  0
 15 16  2  0
 15 17  1  0
 17 18  1  0
 13 19  2  0
 19  8  1  0
  1 20  1  0
  1 21  1  0
  1 22  1  0
  3 23  1  0
  3 24  1  0
  3 25  1  0
  6 26  1  0
  6 27  1  0
  9 28  1  0
 10 29  1  0
 14 30  1  0
 17 31  1  0
 17 32  1  0
 18 33  1  0
 19 34  1  0
M  END
