LIG
     RDKit          3D

 37 37  0  0  0  0  0  0  0  0999 V2000
   30.2144    8.8082    8.3612 C   0  0  0  0  0  0  0  0  0  0  0  0
   31.0305    9.8821    7.7107 C   0  0  0  0  0  0  0  0  0  0  0  0
   32.1039    9.5188    6.8808 C   0  0  0  0  0  0  0  0  0  0  0  0
   32.9565   10.4829    6.3447 C   0  0  0  0  0  0  0  0  0  0  0  0
   32.7771   11.8100    6.7130 C   0  0  0  0  0  0  0  0  0  0  0  0
   33.7553   12.7553    6.4043 N   0  0  0  0  0  0  0  0  0  0  0  0
   34.2749   13.5973    7.3854 C   0  0  0  0  0  0  0  0  0  0  0  0
   34.0086   13.5258    8.5852 O   0  0  0  0  0  0  0  0  0  0  0  0
   35.2870   14.5921    6.8183 C   0  0  0  0  0  0  0  0  0  0  0  0
   35.1678   14.6529    5.3972 O   0  0  0  0  0  0  0  0  0  0  0  0
   36.3329   15.0764    4.7213 C   0  0  0  0  0  0  0  0  0  0  0  0
   36.5320   16.5021    4.1539 C   0  0  0  0  0  0  0  0  0  0  0  0
   37.4894   17.1809    4.5384 O   0  0  0  0  0  0  0  0  0  0  0  0
   35.6649   16.9698    3.1573 N   0  0  0  0  0  0  0  0  0  0  0  0
   35.8917   18.3013    2.6456 C   0  0  0  0  0  0  0  0  0  0  0  0
   34.3072   16.5120    2.9930 C   0  0  0  0  0  0  0  0  0  0  0  0
   31.6496   12.1977    7.4265 C   0  0  0  0  0  0  0  0  0  0  0  0
   30.7664   11.2392    7.8872 C   0  0  0  0  0  0  0  0  0  0  0  0
   29.6533   11.7239    8.4987 O   0  0  0  0  0  0  0  0  0  0  0  0
   30.6956    7.8379    8.2464 H   0  0  0  0  0  0  0  0  0  0  0  0
   30.1321    8.9921    9.4363 H   0  0  0  0  0  0  0  0  0  0  0  0
   29.2207    8.7431    7.9203 H   0  0  0  0  0  0  0  0  0  0  0  0
   32.3134    8.4677    6.6940 H   0  0  0  0  0  0  0  0  0  0  0  0
   33.8143   10.1695    5.7578 H   0  0  0  0  0  0  0  0  0  0  0  0
   34.4206   12.5514    5.6677 H   0  0  0  0  0  0  0  0  0  0  0  0
   35.0823   15.5769    7.2293 H   0  0  0  0  0  0  0  0  0  0  0  0
   36.2741   14.2308    7.1202 H   0  0  0  0  0  0  0  0  0  0  0  0
   36.4007   14.4293    3.8361 H   0  0  0  0  0  0  0  0  0  0  0  0
   37.2312   14.8259    5.2991 H   0  0  0  0  0  0  0  0  0  0  0  0
   35.3175   19.0334    3.2194 H   0  0  0  0  0  0  0  0  0  0  0  0
   36.9505   18.5729    2.6874 H   0  0  0  0  0  0  0  0  0  0  0  0
   35.5726   18.3388    1.5991 H   0  0  0  0  0  0  0  0  0  0  0  0
   33.6102   17.3281    3.1964 H   0  0  0  0  0  0  0  0  0  0  0  0
   34.1808   16.2318    1.9417 H   0  0  0  0  0  0  0  0  0  0  0  0
   34.0646   15.6423    3.5977 H   0  0  0  0  0  0  0  0  0  0  0  0
   31.4635   13.2438    7.6503 H   0  0  0  0  0  0  0  0  0  0  0  0
   29.5621   11.2961    9.3743 H   0  0  0  0  0  0  0  0  0  0  0  0
  1  2  1  0
  2  3  2  0
  3  4  1  0
  4  5  2  0
  5  6  1  0
  6  7  1  0
  7  8  2  0
  7  9  1  0
  9 10  1  0
 10 11  1  0
 11 12  1  0
 12 13  2  0
 12 14  1  0
 14 15  1  0
 14 16  1  0
  5 17  1  0
 17 18  2  0
 18 19  1  0
 18  2  1  0
  1 20  1  0
  1 21  1  0
  1 22  1  0
  3 23  1  0
  4 24  1  0
  6 25  1  0
  9 26  1  0
  9 27  1  0
 11 28  1  0
 11 29  1  0
 15 30  1  0
 15 31  1  0
 15 32  1  0
 16 33  1  0
 16 34  1  0
 16 35  1  0
 17 36  1  0
 19 37  1  0
M  END
