LIG
     RDKit          3D

 40 40  0  0  0  0  0  0  0  0999 V2000
   33.8034   10.1175    5.0821 C   0  0  0  0  0  0  0  0  0  0  0  0
   32.7711   10.5840    6.0558 C   0  0  0  0  0  0  0  0  0  0  0  0
   31.9713    9.6651    6.7368 C   0  0  0  0  0  0  0  0  0  0  0  0
   30.9759   10.0831    7.6396 C   0  0  0  0  0  0  0  0  0  0  0  0
   30.2655    9.0319    8.4435 C   0  0  0  0  0  0  0  0  0  0  0  0
   30.6761   11.4486    7.7427 C   0  0  0  0  0  0  0  0  0  0  0  0
   29.6028   11.8227    8.4899 O   0  0  0  0  0  0  0  0  0  0  0  0
   29.3473   13.2032    8.7181 C   0  0  0  0  0  0  0  0  0  0  0  0
   30.3222   14.0107    9.6244 C   0  0  0  0  0  0  0  0  0  0  0  0
   31.5447   13.9337    9.5128 O   0  0  0  0  0  0  0  0  0  0  0  0
   29.8001   14.9203   10.5392 N   0  0  0  0  0  0  0  0  0  0  0  0
   30.7807   15.6333   11.3435 C   0  0  0  0  0  0  0  0  0  0  0  0
   28.5352   14.6444   11.1593 C   0  0  0  0  0  0  0  0  0  0  0  0
   31.5156   12.3519    7.1184 C   0  0  0  0  0  0  0  0  0  0  0  0
   32.6301   11.9178    6.4115 C   0  0  0  0  0  0  0  0  0  0  0  0
   33.6674   12.8458    6.2274 N   0  0  0  0  0  0  0  0  0  0  0  0
   34.2722   13.3887    7.3691 C   0  0  0  0  0  0  0  0  0  0  0  0
   34.0049   13.0641    8.5294 O   0  0  0  0  0  0  0  0  0  0  0  0
   35.3093   14.4565    7.1114 C   0  0  0  0  0  0  0  0  0  0  0  0
   35.7587   14.6434    5.3675 S   0  0  0  0  0  0  0  0  0  0  0  0
   33.6950    9.0516    4.8590 H   0  0  0  0  0  0  0  0  0  0  0  0
   34.8104   10.2749    5.4773 H   0  0  0  0  0  0  0  0  0  0  0  0
   33.7032   10.6606    4.1365 H   0  0  0  0  0  0  0  0  0  0  0  0
   32.1579    8.5995    6.6120 H   0  0  0  0  0  0  0  0  0  0  0  0
   30.0929    9.3762    9.4650 H   0  0  0  0  0  0  0  0  0  0  0  0
   29.3211    8.7522    7.9764 H   0  0  0  0  0  0  0  0  0  0  0  0
   30.8816    8.1324    8.5298 H   0  0  0  0  0  0  0  0  0  0  0  0
   29.2618   13.7376    7.7625 H   0  0  0  0  0  0  0  0  0  0  0  0
   28.3385   13.2417    9.1331 H   0  0  0  0  0  0  0  0  0  0  0  0
   30.3462   16.5152   11.8122 H   0  0  0  0  0  0  0  0  0  0  0  0
   31.1286   14.9654   12.1221 H   0  0  0  0  0  0  0  0  0  0  0  0
   31.6353   15.9519   10.7413 H   0  0  0  0  0  0  0  0  0  0  0  0
   28.4637   15.1826   12.1047 H   0  0  0  0  0  0  0  0  0  0  0  0
   28.4182   13.5876   11.3796 H   0  0  0  0  0  0  0  0  0  0  0  0
   27.7411   14.9443   10.4728 H   0  0  0  0  0  0  0  0  0  0  0  0
   31.4020   13.4198    7.2391 H   0  0  0  0  0  0  0  0  0  0  0  0
   34.3603   12.6579    5.5092 H   0  0  0  0  0  0  0  0  0  0  0  0
   34.9062   15.4010    7.4748 H   0  0  0  0  0  0  0  0  0  0  0  0
   36.2066   14.2001    7.6804 H   0  0  0  0  0  0  0  0  0  0  0  0
   35.6798   15.9906    5.3396 H   0  0  0  0  0  0  0  0  0  0  0  0
  1  2  1  0
  2  3  2  0
  3  4  1  0
  4  5  1  0
  4  6  2  0
  6  7  1  0
  7  8  1  0
  8  9  1  0
  9 10  2  0
  9 11  1  0
 11 12  1  0
 11 13  1  0
  6 14  1  0
 14 15  2  0
 15 16  1  0
 16 17  1  0
 17 18  2  0
 17 19  1  0
 19 20  1  0
 15  2  1  0
  1 21  1  0
  1 22  1  0
  1 23  1  0
  3 24  1  0
  5 25  1  0
  5 26  1  0
  5 27  1  0
  8 28  1  0
  8 29  1  0
 12 30  1  0
 12 31  1  0
 12 32  1  0
 13 33  1  0
 13 34  1  0
 13 35  1  0
 14 36  1  0
 16 37  1  0
 19 38  1  0
 19 39  1  0
 20 40  1  0
M  END
