LIG
     RDKit          3D

 30 30  0  0  0  0  0  0  0  0999 V2000
    3.0913    1.7544    2.0830 C   0  0  0  0  0  0  0  0  0  0  0  0
    2.8987    0.4420    1.3635 C   0  0  0  0  0  0  0  0  0  0  0  0
    3.8030   -0.3847    1.3197 O   0  0  0  0  0  0  0  0  0  0  0  0
    1.6371    0.3428    0.8112 N   0  0  0  0  0  0  0  0  0  0  0  0
    1.0563   -0.7056    0.0659 C   0  0  0  0  0  0  0  0  0  0  0  0
    1.8036   -1.8647   -0.2033 C   0  0  0  0  0  0  0  0  0  0  0  0
    1.2754   -2.9250   -0.9335 C   0  0  0  0  0  0  0  0  0  0  0  0
   -0.0204   -2.8500   -1.4141 C   0  0  0  0  0  0  0  0  0  0  0  0
   -0.8062   -1.7121   -1.1706 C   0  0  0  0  0  0  0  0  0  0  0  0
   -2.2079   -1.7202   -1.7343 C   0  0  0  0  0  0  0  0  0  0  0  0
   -0.2785   -0.6157   -0.4230 C   0  0  0  0  0  0  0  0  0  0  0  0
   -1.1752    0.4767   -0.2461 N   0  0  0  0  0  0  0  0  0  0  0  0
   -1.0795    1.6944    0.3884 C   0  0  0  0  0  0  0  0  0  0  0  0
   -0.1147    2.1474    0.9954 O   0  0  0  0  0  0  0  0  0  0  0  0
   -2.3803    2.5004    0.2637 C   0  0  0  0  0  0  0  0  0  0  0  0
   -3.3810    1.8044   -0.4767 O   0  0  0  0  0  0  0  0  0  0  0  0
    2.3655    1.8434    2.8963 H   0  0  0  0  0  0  0  0  0  0  0  0
    2.9701    2.5849    1.3820 H   0  0  0  0  0  0  0  0  0  0  0  0
    4.0989    1.7972    2.5064 H   0  0  0  0  0  0  0  0  0  0  0  0
    1.0372    1.1486    0.9663 H   0  0  0  0  0  0  0  0  0  0  0  0
    2.8241   -1.9787    0.1483 H   0  0  0  0  0  0  0  0  0  0  0  0
    1.8826   -3.8065   -1.1227 H   0  0  0  0  0  0  0  0  0  0  0  0
   -0.4167   -3.6885   -1.9830 H   0  0  0  0  0  0  0  0  0  0  0  0
   -2.3379   -0.8966   -2.4438 H   0  0  0  0  0  0  0  0  0  0  0  0
   -2.9434   -1.6392   -0.9273 H   0  0  0  0  0  0  0  0  0  0  0  0
   -2.4234   -2.6484   -2.2748 H   0  0  0  0  0  0  0  0  0  0  0  0
   -2.0973    0.3728   -0.6652 H   0  0  0  0  0  0  0  0  0  0  0  0
   -2.1575    3.4404   -0.2492 H   0  0  0  0  0  0  0  0  0  0  0  0
   -2.7637    2.6969    1.2690 H   0  0  0  0  0  0  0  0  0  0  0  0
   -4.1601    2.3895   -0.5012 H   0  0  0  0  0  0  0  0  0  0  0  0
  1  2  1  0
  2  3  2  0
  2  4  1  0
  4  5  1  0
  5  6  2  0
  6  7  1  0
  7  8  2  0
  8  9  1  0
  9 10  1  0
  9 11  2  0
 11 12  1  0
 12 13  1  0
 13 14  2  0
 13 15  1  0
 15 16  1  0
 11  5  1  0
  1 17  1  0
  1 18  1  0
  1 19  1  0
  4 20  1  0
  6 21  1  0
  7 22  1  0
  8 23  1  0
 10 24  1  0
 10 25  1  0
 10 26  1  0
 12 27  1  0
 15 28  1  0
 15 29  1  0
 16 30  1  0
M  END
