LIG
     RDKit          3D

 38 39  0  0  0  0  0  0  0  0999 V2000
   33.2692    7.3169    6.5527 C   0  0  0  0  0  0  0  0  0  0  0  0
   32.7340    8.7720    6.5300 C   0  0  0  0  0  0  0  0  0  0  0  0
   31.7660    9.0980    7.4680 C   0  0  0  0  0  0  0  0  0  0  0  0
   31.3460   10.4150    7.4890 C   0  0  0  0  0  0  0  0  0  0  0  0
   30.3770   11.5810    8.3040 N   0  0  0  0  0  0  0  0  0  0  0  0
   29.7090   12.5130    7.5840 C   0  0  0  0  0  0  0  0  0  0  0  0
   29.9180   12.6920    6.3980 O   0  0  0  0  0  0  0  0  0  0  0  0
   28.7130   13.3600    8.3510 C   0  0  0  0  0  0  0  0  0  0  0  0
   28.5830   14.6820    7.7450 C   0  0  0  0  0  0  0  0  0  0  0  0
   28.5580   15.7160    7.2730 N   0  0  0  0  0  0  0  0  0  0  0  0
   31.8610   11.3420    6.6030 C   0  0  0  0  0  0  0  0  0  0  0  0
   32.8210   10.9050    5.6820 C   0  0  0  0  0  0  0  0  0  0  0  0
   33.3300   11.7430    4.6780 N   0  0  0  0  0  0  0  0  0  0  0  0
   33.5900   13.0680    4.7540 C   0  0  0  0  0  0  0  0  0  0  0  0
   33.4420   13.7460    5.7670 O   0  0  0  0  0  0  0  0  0  0  0  0
   34.1200   13.7080    3.4770 C   0  0  0  0  0  0  0  0  0  0  0  0
   33.0230   14.1560    2.5380 C   0  0  0  0  0  0  0  0  0  0  0  0
   33.7650   14.2490    1.2210 C   0  0  0  0  0  0  0  0  0  0  0  0
   34.7960   13.1450    1.3220 C   0  0  0  0  0  0  0  0  0  0  0  0
   34.9020   12.7780    2.7050 O   0  0  0  0  0  0  0  0  0  0  0  0
   33.2630    9.6380    5.6520 C   0  0  0  0  0  0  0  0  0  0  0  0
   32.4911    6.6101    6.8595 H   0  0  0  0  0  0  0  0  0  0  0  0
   33.6047    7.0162    5.5546 H   0  0  0  0  0  0  0  0  0  0  0  0
   34.1115    7.2404    7.2470 H   0  0  0  0  0  0  0  0  0  0  0  0
   31.3925    8.3667    8.1419 H   0  0  0  0  0  0  0  0  0  0  0  0
   30.5214   11.5089    9.2190 H   0  0  0  0  0  0  0  0  0  0  0  0
   27.7479   12.8404    8.3602 H   0  0  0  0  0  0  0  0  0  0  0  0
   29.0431   13.4367    9.3937 H   0  0  0  0  0  0  0  0  0  0  0  0
   31.5441   12.3612    6.6135 H   0  0  0  0  0  0  0  0  0  0  0  0
   33.4303   11.3023    3.7608 H   0  0  0  0  0  0  0  0  0  0  0  0
   34.7880   14.5310    3.7487 H   0  0  0  0  0  0  0  0  0  0  0  0
   32.1584   13.4883    2.4854 H   0  0  0  0  0  0  0  0  0  0  0  0
   32.6704   15.1548    2.8220 H   0  0  0  0  0  0  0  0  0  0  0  0
   34.2122   15.2338    1.0414 H   0  0  0  0  0  0  0  0  0  0  0  0
   33.0762   14.0441    0.3893 H   0  0  0  0  0  0  0  0  0  0  0  0
   34.5261   12.2666    0.7284 H   0  0  0  0  0  0  0  0  0  0  0  0
   35.7816   13.4937    0.9958 H   0  0  0  0  0  0  0  0  0  0  0  0
   34.0075    9.3079    4.9354 H   0  0  0  0  0  0  0  0  0  0  0  0
  1  2  1  0
  2  3  4  0
  3  4  4  0
  4  5  1  0
  5  6  1  0
  6  7  2  0
  6  8  1  0
  8  9  1  0
  9 10  3  0
  4 11  4  0
 11 12  4  0
 12 13  1  0
 13 14  1  0
 14 15  2  0
 14 16  1  0
 16 17  1  0
 17 18  1  0
 18 19  1  0
 19 20  1  0
 12 21  4  0
 21  2  4  0
 20 16  1  0
  1 22  1  0
  1 23  1  0
  1 24  1  0
  3 25  1  0
  5 26  1  0
  8 27  1  0
  8 28  1  0
 11 29  1  0
 13 30  1  0
 16 31  1  0
 17 32  1  0
 17 33  1  0
 18 34  1  0
 18 35  1  0
 19 36  1  0
 19 37  1  0
 21 38  1  0
M  END
$$$$
