LIG
     RDKit          3D

 38 39  0  0  0  0  0  0  0  0999 V2000
   33.2661    7.3171    6.5552 C   0  0  0  0  0  0  0  0  0  0  0  0
   32.7340    8.7720    6.5300 C   0  0  0  0  0  0  0  0  0  0  0  0
   31.7660    9.0980    7.4680 C   0  0  0  0  0  0  0  0  0  0  0  0
   31.3460   10.4150    7.4890 C   0  0  0  0  0  0  0  0  0  0  0  0
   30.3770   11.5810    8.3040 N   0  0  0  0  0  0  0  0  0  0  0  0
   29.7090   12.5130    7.5840 C   0  0  0  0  0  0  0  0  0  0  0  0
   29.9180   12.6920    6.3980 O   0  0  0  0  0  0  0  0  0  0  0  0
   28.7130   13.3600    8.3510 C   0  0  0  0  0  0  0  0  0  0  0  0
   28.5830   14.6820    7.7450 C   0  0  0  0  0  0  0  0  0  0  0  0
   28.5580   15.7160    7.2730 N   0  0  0  0  0  0  0  0  0  0  0  0
   31.8610   11.3420    6.6030 C   0  0  0  0  0  0  0  0  0  0  0  0
   32.8210   10.9050    5.6820 C   0  0  0  0  0  0  0  0  0  0  0  0
   33.3300   11.7430    4.6780 N   0  0  0  0  0  0  0  0  0  0  0  0
   33.5900   13.0680    4.7540 C   0  0  0  0  0  0  0  0  0  0  0  0
   33.4420   13.7460    5.7670 O   0  0  0  0  0  0  0  0  0  0  0  0
   34.1200   13.7080    3.4770 C   0  0  0  0  0  0  0  0  0  0  0  0
   33.0230   14.1560    2.5380 C   0  0  0  0  0  0  0  0  0  0  0  0
   33.7650   14.2490    1.2210 C   0  0  0  0  0  0  0  0  0  0  0  0
   34.7960   13.1450    1.3220 C   0  0  0  0  0  0  0  0  0  0  0  0
   34.9020   12.7780    2.7050 O   0  0  0  0  0  0  0  0  0  0  0  0
   33.2630    9.6380    5.6520 C   0  0  0  0  0  0  0  0  0  0  0  0
   34.0987    7.2370    7.2608 H   0  0  0  0  0  0  0  0  0  0  0  0
   33.6152    7.0191    5.5610 H   0  0  0  0  0  0  0  0  0  0  0  0
   32.4825    6.6105    6.8484 H   0  0  0  0  0  0  0  0  0  0  0  0
   31.3864    8.3550    8.1246 H   0  0  0  0  0  0  0  0  0  0  0  0
   30.4096   11.4114    9.2142 H   0  0  0  0  0  0  0  0  0  0  0  0
   29.0603   13.4373    9.3898 H   0  0  0  0  0  0  0  0  0  0  0  0
   27.7407   12.8511    8.3893 H   0  0  0  0  0  0  0  0  0  0  0  0
   31.5399   12.3562    6.6260 H   0  0  0  0  0  0  0  0  0  0  0  0
   33.4954   11.2825    3.7807 H   0  0  0  0  0  0  0  0  0  0  0  0
   34.7851   14.5324    3.7496 H   0  0  0  0  0  0  0  0  0  0  0  0
   32.6707   15.1547    2.8220 H   0  0  0  0  0  0  0  0  0  0  0  0
   32.1584   13.4892    2.4844 H   0  0  0  0  0  0  0  0  0  0  0  0
   34.2124   15.2341    1.0408 H   0  0  0  0  0  0  0  0  0  0  0  0
   33.0754   14.0428    0.3898 H   0  0  0  0  0  0  0  0  0  0  0  0
   34.5272   12.2661    0.7275 H   0  0  0  0  0  0  0  0  0  0  0  0
   35.7820   13.4944    0.9958 H   0  0  0  0  0  0  0  0  0  0  0  0
   34.0201    9.3111    4.9464 H   0  0  0  0  0  0  0  0  0  0  0  0
  1  2  1  0
  2  3  4  0
  3  4  4  0
  4  5  1  0
  5  6  1  0
  6  7  2  0
  6  8  1  0
  8  9  1  0
  9 10  3  0
  4 11  4  0
 11 12  4  0
 12 13  1  0
 13 14  1  0
 14 15  2  0
 14 16  1  0
 16 17  1  0
 17 18  1  0
 18 19  1  0
 19 20  1  0
 12 21  4  0
 21  2  4  0
 20 16  1  0
  1 22  1  0
  1 23  1  0
  1 24  1  0
  3 25  1  0
  5 26  1  0
  8 27  1  0
  8 28  1  0
 11 29  1  0
 13 30  1  0
 16 31  1  0
 17 32  1  0
 17 33  1  0
 18 34  1  0
 18 35  1  0
 19 36  1  0
 19 37  1  0
 21 38  1  0
M  END
