LIG
     RDKit          3D

 42 43  0  0  0  0  0  0  0  0999 V2000
    1.4445   -3.9679   -1.3080 C   0  0  0  0  0  0  0  0  0  0  0  0
    2.0613   -2.6754   -0.8477 C   0  0  0  0  0  0  0  0  0  0  0  0
    3.4514   -2.5148   -0.8768 C   0  0  0  0  0  0  0  0  0  0  0  0
    4.0352   -1.3192   -0.4536 C   0  0  0  0  0  0  0  0  0  0  0  0
    3.2421   -0.2640    0.0078 C   0  0  0  0  0  0  0  0  0  0  0  0
    3.9123    0.9093    0.4231 N   0  0  0  0  0  0  0  0  0  0  0  0
    3.3435    2.0896    0.8814 C   0  0  0  0  0  0  0  0  0  0  0  0
    2.1429    2.3230    0.9953 O   0  0  0  0  0  0  0  0  0  0  0  0
    4.3647    3.1354    1.2697 C   0  0  0  0  0  0  0  0  0  0  0  0
    4.8073    3.8705    0.0878 C   0  0  0  0  0  0  0  0  0  0  0  0
    5.2018    4.4380   -0.8443 N   0  0  0  0  0  0  0  0  0  0  0  0
    1.8541   -0.4245    0.0383 C   0  0  0  0  0  0  0  0  0  0  0  0
    1.2572   -1.6186   -0.3900 C   0  0  0  0  0  0  0  0  0  0  0  0
   -0.0931   -1.8589   -0.3965 O   0  0  0  0  0  0  0  0  0  0  0  0
   -0.9534   -0.7826   -0.0458 C   0  0  0  0  0  0  0  0  0  0  0  0
   -2.4308   -1.1822   -0.1648 C   0  0  0  0  0  0  0  0  0  0  0  0
   -2.7816   -2.3423   -0.3863 O   0  0  0  0  0  0  0  0  0  0  0  0
   -3.3622   -0.1607   -0.0071 N   0  0  0  0  0  0  0  0  0  0  0  0
   -4.7870   -0.4545   -0.1753 C   0  0  0  0  0  0  0  0  0  0  0  0
   -5.5318    0.7611   -0.7344 C   0  0  0  0  0  0  0  0  0  0  0  0
   -5.4073    1.9429    0.0712 O   0  0  0  0  0  0  0  0  0  0  0  0
   -4.2364    1.9701    0.8968 C   0  0  0  0  0  0  0  0  0  0  0  0
   -3.0385    1.2401    0.2810 C   0  0  0  0  0  0  0  0  0  0  0  0
    0.8776   -4.4293   -0.4930 H   0  0  0  0  0  0  0  0  0  0  0  0
    2.2077   -4.6851   -1.6282 H   0  0  0  0  0  0  0  0  0  0  0  0
    0.7796   -3.7889   -2.1594 H   0  0  0  0  0  0  0  0  0  0  0  0
    4.0894   -3.3214   -1.2317 H   0  0  0  0  0  0  0  0  0  0  0  0
    5.1178   -1.2327   -0.4941 H   0  0  0  0  0  0  0  0  0  0  0  0
    4.9217    0.8797    0.3337 H   0  0  0  0  0  0  0  0  0  0  0  0
    5.2110    2.6530    1.7710 H   0  0  0  0  0  0  0  0  0  0  0  0
    3.9080    3.8112    2.0012 H   0  0  0  0  0  0  0  0  0  0  0  0
    1.2323    0.3820    0.4007 H   0  0  0  0  0  0  0  0  0  0  0  0
   -0.7790   -0.5020    0.9993 H   0  0  0  0  0  0  0  0  0  0  0  0
   -0.7799    0.0615   -0.7232 H   0  0  0  0  0  0  0  0  0  0  0  0
   -5.1725   -0.7108    0.8183 H   0  0  0  0  0  0  0  0  0  0  0  0
   -4.9274   -1.3200   -0.8305 H   0  0  0  0  0  0  0  0  0  0  0  0
   -6.5992    0.5405   -0.8335 H   0  0  0  0  0  0  0  0  0  0  0  0
   -5.1537    1.0074   -1.7334 H   0  0  0  0  0  0  0  0  0  0  0  0
   -4.4999    1.5222    1.8621 H   0  0  0  0  0  0  0  0  0  0  0  0
   -3.9862    3.0197    1.0810 H   0  0  0  0  0  0  0  0  0  0  0  0
   -2.1765    1.2979    0.9509 H   0  0  0  0  0  0  0  0  0  0  0  0
   -2.7670    1.7006   -0.6758 H   0  0  0  0  0  0  0  0  0  0  0  0
  1  2  1  0
  2  3  2  0
  3  4  1  0
  4  5  2  0
  5  6  1  0
  6  7  1  0
  7  8  2  0
  7  9  1  0
  9 10  1  0
 10 11  3  0
  5 12  1  0
 12 13  2  0
 13 14  1  0
 14 15  1  0
 15 16  1  0
 16 17  2  0
 16 18  1  0
 18 19  1  0
 19 20  1  0
 20 21  1  0
 21 22  1  0
 22 23  1  0
 13  2  1  0
 23 18  1  0
  1 24  1  0
  1 25  1  0
  1 26  1  0
  3 27  1  0
  4 28  1  0
  6 29  1  0
  9 30  1  0
  9 31  1  0
 12 32  1  0
 15 33  1  0
 15 34  1  0
 19 35  1  0
 19 36  1  0
 20 37  1  0
 20 38  1  0
 22 39  1  0
 22 40  1  0
 23 41  1  0
 23 42  1  0
M  END
