LIG
     RDKit          3D

 37 38  0  0  0  0  0  0  0  0999 V2000
   30.8087    8.1716    8.0991 C   0  0  0  0  0  0  0  0  0  0  0  0
   31.4136    9.3946    7.5375 C   0  0  0  0  0  0  0  0  0  0  0  0
   32.3750    9.4350    6.5345 C   0  0  0  0  0  0  0  0  0  0  0  0
   33.0108   10.5618    6.1334 N   0  0  0  0  0  0  0  0  0  0  0  0
   32.7641   11.6640    6.8601 C   0  0  0  0  0  0  0  0  0  0  0  0
   33.6131   12.7507    6.6452 N   0  0  0  0  0  0  0  0  0  0  0  0
   34.2489   13.3848    7.7049 C   0  0  0  0  0  0  0  0  0  0  0  0
   34.0785   13.1055    8.8934 O   0  0  0  0  0  0  0  0  0  0  0  0
   35.1966   14.4996    7.3099 C   0  0  0  0  0  0  0  0  0  0  0  0
   35.8537   14.3102    5.6320 S   0  0  0  0  0  0  0  0  0  0  0  0
   31.7564   11.7057    7.8156 C   0  0  0  0  0  0  0  0  0  0  0  0
   31.4520   12.7934    8.5574 O   0  0  0  0  0  0  0  0  0  0  0  0
   30.4452   13.5100    7.9206 C   0  0  0  0  0  0  0  0  0  0  0  0
   29.0843   12.8486    7.7173 C   0  0  0  0  0  0  0  0  0  0  0  0
   28.2153   14.0553    7.5430 C   0  0  0  0  0  0  0  0  0  0  0  0
   28.7547   14.9568    8.5234 N   0  0  0  0  0  0  0  0  0  0  0  0
   28.3917   16.3165    8.4556 C   0  0  0  0  0  0  0  0  0  0  0  0
   30.0858   14.6686    8.8122 C   0  0  0  0  0  0  0  0  0  0  0  0
   30.8211   15.3072    9.5510 O   0  0  0  0  0  0  0  0  0  0  0  0
   31.0636   10.5676    8.1430 C   0  0  0  0  0  0  0  0  0  0  0  0
   31.1399    8.0310    9.1323 H   0  0  0  0  0  0  0  0  0  0  0  0
   31.1545    7.3404    7.5039 H   0  0  0  0  0  0  0  0  0  0  0  0
   29.7161    8.2150    8.0881 H   0  0  0  0  0  0  0  0  0  0  0  0
   32.7183    8.5309    6.0431 H   0  0  0  0  0  0  0  0  0  0  0  0
   34.2085   12.6402    5.8313 H   0  0  0  0  0  0  0  0  0  0  0  0
   36.0330   14.4996    8.0136 H   0  0  0  0  0  0  0  0  0  0  0  0
   34.6711   15.4491    7.3809 H   0  0  0  0  0  0  0  0  0  0  0  0
   36.6438   13.2613    5.9119 H   0  0  0  0  0  0  0  0  0  0  0  0
   30.8099   13.8947    6.9640 H   0  0  0  0  0  0  0  0  0  0  0  0
   28.7908   12.2907    8.6081 H   0  0  0  0  0  0  0  0  0  0  0  0
   29.0460   12.1798    6.8537 H   0  0  0  0  0  0  0  0  0  0  0  0
   27.1620   13.8687    7.7283 H   0  0  0  0  0  0  0  0  0  0  0  0
   28.3428   14.4776    6.5392 H   0  0  0  0  0  0  0  0  0  0  0  0
   28.3413   16.5758    7.4015 H   0  0  0  0  0  0  0  0  0  0  0  0
   29.1561   16.9734    8.8395 H   0  0  0  0  0  0  0  0  0  0  0  0
   27.4529   16.4120    8.9967 H   0  0  0  0  0  0  0  0  0  0  0  0
   30.3287   10.5745    8.9407 H   0  0  0  0  0  0  0  0  0  0  0  0
  1  2  1  0
  2  3  2  0
  3  4  1  0
  4  5  2  0
  5  6  1  0
  6  7  1  0
  7  8  2  0
  7  9  1  0
  9 10  1  0
  5 11  1  0
 11 12  1  0
 12 13  1  0
 13 14  1  0
 14 15  1  0
 15 16  1  0
 16 17  1  0
 16 18  1  0
 18 19  2  0
 11 20  2  0
 20  2  1  0
 18 13  1  0
  1 21  1  0
  1 22  1  0
  1 23  1  0
  3 24  1  0
  6 25  1  0
  9 26  1  0
  9 27  1  0
 10 28  1  0
 13 29  1  0
 14 30  1  0
 14 31  1  0
 15 32  1  0
 15 33  1  0
 17 34  1  0
 17 35  1  0
 17 36  1  0
 20 37  1  0
M  END
