LIG
     RDKit          3D

 41 43  0  0  0  0  0  0  0  0999 V2000
   28.5684   16.3096    8.4582 C   0  0  0  0  0  0  0  0  0  0  0  0
   28.8372   14.9364    8.2910 N   0  0  0  0  0  0  0  0  0  0  0  0
   28.0246   14.1435    7.4265 C   0  0  0  0  0  0  0  0  0  0  0  0
   28.5147   12.7635    7.7352 C   0  0  0  0  0  0  0  0  0  0  0  0
   30.0087   12.9996    7.8914 C   0  0  0  0  0  0  0  0  0  0  0  0
   30.6182   11.8576    8.4249 O   0  0  0  0  0  0  0  0  0  0  0  0
   31.8569   11.7834    7.8622 C   0  0  0  0  0  0  0  0  0  0  0  0
   31.9556   11.1787    6.6399 C   0  0  0  0  0  0  0  0  0  0  0  0
   32.9996   11.6324    5.8699 C   0  0  0  0  0  0  0  0  0  0  0  0
   32.6991   11.9675    4.5434 N   0  0  0  0  0  0  0  0  0  0  0  0
   33.3912   11.3817    3.5077 C   0  0  0  0  0  0  0  0  0  0  0  0
   33.4227   10.1731    3.3317 O   0  0  0  0  0  0  0  0  0  0  0  0
   34.0577   12.3678    2.5197 C   0  0  0  0  0  0  0  0  0  0  0  0
   33.0797   13.0540    1.5765 C   0  0  0  0  0  0  0  0  0  0  0  0
   32.9418   14.4470    2.1445 C   0  0  0  0  0  0  0  0  0  0  0  0
   34.3025   14.6753    2.7563 C   0  0  0  0  0  0  0  0  0  0  0  0
   34.7055   13.4067    3.2736 O   0  0  0  0  0  0  0  0  0  0  0  0
   34.0215   12.4030    6.4093 C   0  0  0  0  0  0  0  0  0  0  0  0
   33.8673   12.8674    7.6838 C   0  0  0  0  0  0  0  0  0  0  0  0
   32.7914   12.5774    8.4195 N   0  0  0  0  0  0  0  0  0  0  0  0
   30.0394   14.3335    8.6356 C   0  0  0  0  0  0  0  0  0  0  0  0
   30.9531   14.8444    9.2629 O   0  0  0  0  0  0  0  0  0  0  0  0
   29.3811   16.7653    8.9924 H   0  0  0  0  0  0  0  0  0  0  0  0
   28.5459   16.7694    7.4736 H   0  0  0  0  0  0  0  0  0  0  0  0
   27.6250   16.3957    8.9933 H   0  0  0  0  0  0  0  0  0  0  0  0
   26.9756   14.2909    7.6534 H   0  0  0  0  0  0  0  0  0  0  0  0
   28.2261   14.4252    6.3875 H   0  0  0  0  0  0  0  0  0  0  0  0
   28.1041   12.4380    8.6905 H   0  0  0  0  0  0  0  0  0  0  0  0
   28.2637   12.0263    6.9691 H   0  0  0  0  0  0  0  0  0  0  0  0
   30.3830   13.2388    6.8794 H   0  0  0  0  0  0  0  0  0  0  0  0
   31.1204   10.6360    6.2292 H   0  0  0  0  0  0  0  0  0  0  0  0
   32.8550   12.9686    4.4403 H   0  0  0  0  0  0  0  0  0  0  0  0
   34.8270   11.8162    1.9682 H   0  0  0  0  0  0  0  0  0  0  0  0
   33.5221   13.1117    0.5745 H   0  0  0  0  0  0  0  0  0  0  0  0
   32.1203   12.5369    1.4836 H   0  0  0  0  0  0  0  0  0  0  0  0
   32.1692   14.4587    2.9216 H   0  0  0  0  0  0  0  0  0  0  0  0
   32.6792   15.1987    1.3954 H   0  0  0  0  0  0  0  0  0  0  0  0
   35.0333   14.9867    2.0021 H   0  0  0  0  0  0  0  0  0  0  0  0
   34.2877   15.4159    3.5597 H   0  0  0  0  0  0  0  0  0  0  0  0
   34.8618   12.7545    5.8192 H   0  0  0  0  0  0  0  0  0  0  0  0
   34.6052   13.5154    8.1488 H   0  0  0  0  0  0  0  0  0  0  0  0
  1  2  1  0
  2  3  1  0
  3  4  1  0
  4  5  1  0
  5  6  1  0
  6  7  1  0
  7  8  2  0
  8  9  1  0
  9 10  1  0
 10 11  1  0
 11 12  2  0
 11 13  1  0
 13 14  1  0
 14 15  1  0
 15 16  1  0
 16 17  1  0
  9 18  2  0
 18 19  1  0
 19 20  2  0
  5 21  1  0
 21 22  2  0
 21  2  1  0
 20  7  1  0
 17 13  1  0
  1 23  1  0
  1 24  1  0
  1 25  1  0
  3 26  1  0
  3 27  1  0
  4 28  1  0
  4 29  1  0
  5 30  1  0
  8 31  1  0
 10 32  1  0
 13 33  1  0
 14 34  1  0
 14 35  1  0
 15 36  1  0
 15 37  1  0
 16 38  1  0
 16 39  1  0
 18 40  1  0
 19 41  1  0
M  END
