LIG
     RDKit          3D

 44 44  0  0  0  0  0  0  0  0999 V2000
   28.1136   13.8057    5.4692 C   0  0  0  0  0  0  0  0  0  0  0  0
   29.5883   13.7372    5.1839 C   0  0  0  0  0  0  0  0  0  0  0  0
   30.1704   14.6127    4.5557 O   0  0  0  0  0  0  0  0  0  0  0  0
   30.1758   12.6490    5.7880 N   0  0  0  0  0  0  0  0  0  0  0  0
   31.5159   12.6247    6.2398 C   0  0  0  0  0  0  0  0  0  0  0  0
   32.6116   13.2723    5.6702 C   0  0  0  0  0  0  0  0  0  0  0  0
   32.8262   13.4132    4.1926 C   0  0  0  0  0  0  0  0  0  0  0  0
   33.9302   12.5442    3.7279 N   0  0  0  0  0  0  0  0  0  0  0  0
   35.4984   13.1133    3.9791 S   0  0  0  0  0  0  0  0  0  0  0  0
   36.2830   12.5945    2.4823 C   0  0  0  0  0  0  0  0  0  0  0  0
   35.4647   14.5554    4.0067 O   0  0  0  0  0  0  0  0  0  0  0  0
   36.0274   12.3303    5.0709 O   0  0  0  0  0  0  0  0  0  0  0  0
   33.6252   13.7195    6.5342 C   0  0  0  0  0  0  0  0  0  0  0  0
   33.4757   13.6303    7.9002 C   0  0  0  0  0  0  0  0  0  0  0  0
   32.3390   13.0141    8.3690 C   0  0  0  0  0  0  0  0  0  0  0  0
   31.7101   13.3641    9.5188 O   0  0  0  0  0  0  0  0  0  0  0  0
   31.9906   14.6425   10.0099 C   0  0  0  0  0  0  0  0  0  0  0  0
   30.8571   15.3205   10.7347 C   0  0  0  0  0  0  0  0  0  0  0  0
   31.1066   16.1695   11.5932 O   0  0  0  0  0  0  0  0  0  0  0  0
   29.5639   14.9680   10.4224 N   0  0  0  0  0  0  0  0  0  0  0  0
   28.7477   14.6718   11.5607 C   0  0  0  0  0  0  0  0  0  0  0  0
   29.1372   14.4320    9.1468 C   0  0  0  0  0  0  0  0  0  0  0  0
   31.6072   12.1972    7.5426 C   0  0  0  0  0  0  0  0  0  0  0  0
   30.4845   10.8185    8.1795 Br  0  0  0  0  0  0  0  0  0  0  0  0
   27.9603   14.5374    6.2643 H   0  0  0  0  0  0  0  0  0  0  0  0
   27.5818   14.0990    4.5612 H   0  0  0  0  0  0  0  0  0  0  0  0
   27.7028   12.8534    5.8136 H   0  0  0  0  0  0  0  0  0  0  0  0
   29.5555   12.0975    6.3768 H   0  0  0  0  0  0  0  0  0  0  0  0
   31.9409   13.0872    3.6386 H   0  0  0  0  0  0  0  0  0  0  0  0
   32.9811   14.4592    3.9093 H   0  0  0  0  0  0  0  0  0  0  0  0
   33.8632   11.6025    4.1204 H   0  0  0  0  0  0  0  0  0  0  0  0
   37.3331   12.8912    2.5301 H   0  0  0  0  0  0  0  0  0  0  0  0
   35.7983   13.0863    1.6369 H   0  0  0  0  0  0  0  0  0  0  0  0
   36.2100   11.5086    2.3982 H   0  0  0  0  0  0  0  0  0  0  0  0
   34.4871   14.2767    6.1748 H   0  0  0  0  0  0  0  0  0  0  0  0
   34.1834   14.1512    8.5383 H   0  0  0  0  0  0  0  0  0  0  0  0
   32.7356   14.4785   10.7693 H   0  0  0  0  0  0  0  0  0  0  0  0
   32.3909   15.3378    9.2805 H   0  0  0  0  0  0  0  0  0  0  0  0
   27.7115   14.5999   11.2372 H   0  0  0  0  0  0  0  0  0  0  0  0
   29.0701   13.7284   11.9855 H   0  0  0  0  0  0  0  0  0  0  0  0
   28.8613   15.4272   12.3399 H   0  0  0  0  0  0  0  0  0  0  0  0
   29.8203   14.7351    8.3523 H   0  0  0  0  0  0  0  0  0  0  0  0
   28.1461   14.8350    8.9157 H   0  0  0  0  0  0  0  0  0  0  0  0
   29.0704   13.3463    9.1994 H   0  0  0  0  0  0  0  0  0  0  0  0
  1  2  1  0
  2  3  2  0
  2  4  1  0
  4  5  1  0
  5  6  2  0
  6  7  1  0
  7  8  1  0
  8  9  1  0
  9 10  1  0
  9 11  2  0
  9 12  2  0
  6 13  1  0
 13 14  2  0
 14 15  1  0
 15 16  1  0
 16 17  1  0
 17 18  1  0
 18 19  2  0
 18 20  1  0
 20 21  1  0
 20 22  1  0
 15 23  2  0
 23 24  1  0
 23  5  1  0
  1 25  1  0
  1 26  1  0
  1 27  1  0
  4 28  1  0
  7 29  1  0
  7 30  1  0
  8 31  1  0
 10 32  1  0
 10 33  1  0
 10 34  1  0
 13 35  1  0
 14 36  1  0
 17 37  1  0
 17 38  1  0
 21 39  1  0
 21 40  1  0
 21 41  1  0
 22 42  1  0
 22 43  1  0
 22 44  1  0
M  END
