LIG
     RDKit          3D

 38 39  0  0  0  0  0  0  0  0999 V2000
   35.1790    9.9596    6.5334 C   0  0  0  0  0  0  0  0  0  0  0  0
   33.8251   10.5747    6.3807 C   0  0  0  0  0  0  0  0  0  0  0  0
   32.7166    9.7298    6.2906 C   0  0  0  0  0  0  0  0  0  0  0  0
   31.4571   10.2612    6.0432 C   0  0  0  0  0  0  0  0  0  0  0  0
   31.2855   11.6396    5.8665 C   0  0  0  0  0  0  0  0  0  0  0  0
   32.3525   12.4973    6.0647 C   0  0  0  0  0  0  0  0  0  0  0  0
   32.3555   13.8574    5.9067 O   0  0  0  0  0  0  0  0  0  0  0  0
   31.3650   14.6492    6.5194 C   0  0  0  0  0  0  0  0  0  0  0  0
   30.4721   15.1953    5.4118 C   0  0  0  0  0  0  0  0  0  0  0  0
   30.0904   16.6036    5.8190 C   0  0  0  0  0  0  0  0  0  0  0  0
   31.1213   17.0241    6.7301 N   0  0  0  0  0  0  0  0  0  0  0  0
   30.9070   18.1985    7.5586 C   0  0  0  0  0  0  0  0  0  0  0  0
   31.8554   15.9293    7.2215 C   0  0  0  0  0  0  0  0  0  0  0  0
   32.6607   15.9608    8.1428 O   0  0  0  0  0  0  0  0  0  0  0  0
   33.6161   11.9581    6.3256 C   0  0  0  0  0  0  0  0  0  0  0  0
   34.6306   12.9214    6.4790 N   0  0  0  0  0  0  0  0  0  0  0  0
   35.2376   13.1048    7.7116 C   0  0  0  0  0  0  0  0  0  0  0  0
   35.4069   12.2492    8.5696 O   0  0  0  0  0  0  0  0  0  0  0  0
   35.6764   14.5627    7.8850 C   0  0  0  0  0  0  0  0  0  0  0  0
   35.6874   15.2696    6.6403 O   0  0  0  0  0  0  0  0  0  0  0  0
   35.2436    9.0210    5.9715 H   0  0  0  0  0  0  0  0  0  0  0  0
   35.9675   10.6103    6.1425 H   0  0  0  0  0  0  0  0  0  0  0  0
   35.3818    9.7454    7.5871 H   0  0  0  0  0  0  0  0  0  0  0  0
   32.8370    8.6527    6.3876 H   0  0  0  0  0  0  0  0  0  0  0  0
   30.6291    9.5731    5.9346 H   0  0  0  0  0  0  0  0  0  0  0  0
   30.3339   12.0185    5.5188 H   0  0  0  0  0  0  0  0  0  0  0  0
   30.8696   14.1114    7.3167 H   0  0  0  0  0  0  0  0  0  0  0  0
   31.0447   15.2505    4.4747 H   0  0  0  0  0  0  0  0  0  0  0  0
   29.6215   14.5512    5.1777 H   0  0  0  0  0  0  0  0  0  0  0  0
   29.1177   16.6757    6.3050 H   0  0  0  0  0  0  0  0  0  0  0  0
   30.0776   17.2827    4.9602 H   0  0  0  0  0  0  0  0  0  0  0  0
   29.9195   18.1729    8.0228 H   0  0  0  0  0  0  0  0  0  0  0  0
   31.6742   18.2747    8.3334 H   0  0  0  0  0  0  0  0  0  0  0  0
   30.9604   19.0790    6.9117 H   0  0  0  0  0  0  0  0  0  0  0  0
   34.3453   13.8375    6.1209 H   0  0  0  0  0  0  0  0  0  0  0  0
   34.9903   15.0617    8.5716 H   0  0  0  0  0  0  0  0  0  0  0  0
   36.6870   14.5853    8.3033 H   0  0  0  0  0  0  0  0  0  0  0  0
   36.4379   14.9090    6.1362 H   0  0  0  0  0  0  0  0  0  0  0  0
  1  2  1  0
  2  3  2  0
  3  4  1  0
  4  5  2  0
  5  6  1  0
  6  7  1  0
  7  8  1  0
  8  9  1  0
  9 10  1  0
 10 11  1  0
 11 12  1  0
 11 13  1  0
 13 14  2  0
  6 15  2  0
 15 16  1  0
 16 17  1  0
 17 18  2  0
 17 19  1  0
 19 20  1  0
 15  2  1  0
 13  8  1  0
  1 21  1  0
  1 22  1  0
  1 23  1  0
  3 24  1  0
  4 25  1  0
  5 26  1  0
  8 27  1  0
  9 28  1  0
  9 29  1  0
 10 30  1  0
 10 31  1  0
 12 32  1  0
 12 33  1  0
 12 34  1  0
 16 35  1  0
 19 36  1  0
 19 37  1  0
 20 38  1  0
M  END
