LIG
     RDKit          3D

 27 27  0  0  0  0  0  0  0  0999 V2000
   31.7742   14.1618    7.9629 C   0  0  0  0  0  0  0  0  0  0  0  0
   31.2982   14.0894    6.5422 C   0  0  0  0  0  0  0  0  0  0  0  0
   30.6084   14.9627    6.0164 O   0  0  0  0  0  0  0  0  0  0  0  0
   31.5099   12.9780    5.7877 N   0  0  0  0  0  0  0  0  0  0  0  0
   32.1279   11.7691    6.1175 C   0  0  0  0  0  0  0  0  0  0  0  0
   31.3560   10.6131    6.0375 C   0  0  0  0  0  0  0  0  0  0  0  0
   31.8947    9.3516    6.2625 C   0  0  0  0  0  0  0  0  0  0  0  0
   33.2581    9.2390    6.4768 C   0  0  0  0  0  0  0  0  0  0  0  0
   34.0466   10.3895    6.4980 C   0  0  0  0  0  0  0  0  0  0  0  0
   35.3730   10.2280    6.5164 F   0  0  0  0  0  0  0  0  0  0  0  0
   33.4915   11.6674    6.3679 C   0  0  0  0  0  0  0  0  0  0  0  0
   34.2726   12.8370    6.3626 N   0  0  0  0  0  0  0  0  0  0  0  0
   35.1548   13.1290    7.3897 C   0  0  0  0  0  0  0  0  0  0  0  0
   35.4943   12.3701    8.2885 O   0  0  0  0  0  0  0  0  0  0  0  0
   35.6449   14.5756    7.3156 C   0  0  0  0  0  0  0  0  0  0  0  0
   34.7975   15.4134    6.5352 O   0  0  0  0  0  0  0  0  0  0  0  0
   31.0016   13.7871    8.6285 H   0  0  0  0  0  0  0  0  0  0  0  0
   32.6675   13.5763    8.1451 H   0  0  0  0  0  0  0  0  0  0  0  0
   32.0458   15.1928    8.2035 H   0  0  0  0  0  0  0  0  0  0  0  0
   30.8160   12.9507    5.0475 H   0  0  0  0  0  0  0  0  0  0  0  0
   30.3160   10.7076    5.7904 H   0  0  0  0  0  0  0  0  0  0  0  0
   31.2649    8.4674    6.2236 H   0  0  0  0  0  0  0  0  0  0  0  0
   33.7326    8.2703    6.6034 H   0  0  0  0  0  0  0  0  0  0  0  0
   33.8702   13.6661    5.9307 H   0  0  0  0  0  0  0  0  0  0  0  0
   36.6398   14.5751    6.8613 H   0  0  0  0  0  0  0  0  0  0  0  0
   35.7120   14.9866    8.3277 H   0  0  0  0  0  0  0  0  0  0  0  0
   34.1245   15.7769    7.1398 H   0  0  0  0  0  0  0  0  0  0  0  0
  1  2  1  0
  2  3  2  0
  2  4  1  0
  4  5  1  0
  5  6  2  0
  6  7  1  0
  7  8  2  0
  8  9  1  0
  9 10  1  0
  9 11  2  0
 11 12  1  0
 12 13  1  0
 13 14  2  0
 13 15  1  0
 15 16  1  0
 11  5  1  0
  1 17  1  0
  1 18  1  0
  1 19  1  0
  4 20  1  0
  6 21  1  0
  7 22  1  0
  8 23  1  0
 12 24  1  0
 15 25  1  0
 15 26  1  0
 16 27  1  0
M  END
