LIG
     RDKit          3D

 40 40  0  0  0  0  0  0  0  0999 V2000
   30.1570    8.4110    8.0350 C   0  0  0  0  0  0  0  0  0  0  0  0
   31.0170    9.5590    7.5720 C   0  0  0  0  0  0  0  0  0  0  0  0
   32.1560    9.3390    6.8090 C   0  0  0  0  0  0  0  0  0  0  0  0
   33.0110   10.3720    6.4380 C   0  0  0  0  0  0  0  0  0  0  0  0
   34.1980   10.0910    5.5530 C   0  0  0  0  0  0  0  0  0  0  0  0
   32.7080   11.6650    6.8730 C   0  0  0  0  0  0  0  0  0  0  0  0
   33.6520   12.7090    6.6590 N   0  0  0  0  0  0  0  0  0  0  0  0
   34.4250   13.2280    7.6390 C   0  0  0  0  0  0  0  0  0  0  0  0
   34.9120   12.5690    8.5560 O   0  0  0  0  0  0  0  0  0  0  0  0
   34.6680   14.7180    7.5670 C   0  0  0  0  0  0  0  0  0  0  0  0
   35.0470   15.1300    6.2680 O   0  0  0  0  0  0  0  0  0  0  0  0
   35.6120   16.4326    6.1900 C   0  0  0  0  0  0  0  0  0  0  0  0
   34.9031   17.6286    6.8756 C   0  0  0  0  0  0  0  0  0  0  0  0
   33.8143   17.4859    7.4420 O   0  0  0  0  0  0  0  0  0  0  0  0
   35.5499   18.8660    6.8201 N   0  0  0  0  0  0  0  0  0  0  0  0
   36.9419   19.0224    6.4231 C   0  0  0  0  0  0  0  0  0  0  0  0
   34.9816   19.9622    7.5888 C   0  0  0  0  0  0  0  0  0  0  0  0
   31.5450   11.9340    7.6020 C   0  0  0  0  0  0  0  0  0  0  0  0
   30.7220   10.8640    7.9390 C   0  0  0  0  0  0  0  0  0  0  0  0
   29.4280   11.6110    9.1450 O   0  0  0  0  0  0  0  0  0  0  0  0
   30.1634    7.5892    7.3136 H   0  0  0  0  0  0  0  0  0  0  0  0
   29.1220    8.7415    8.1501 H   0  0  0  0  0  0  0  0  0  0  0  0
   29.3578    8.2240    7.3122 H   0  0  0  0  0  0  0  0  0  0  0  0
   32.3803    8.3171    6.4769 H   0  0  0  0  0  0  0  0  0  0  0  0
   34.2305    9.0414    5.2428 H   0  0  0  0  0  0  0  0  0  0  0  0
   33.8655    9.7386    4.5716 H   0  0  0  0  0  0  0  0  0  0  0  0
   34.1474   10.6979    4.6424 H   0  0  0  0  0  0  0  0  0  0  0  0
   33.6881   13.1008    5.7587 H   0  0  0  0  0  0  0  0  0  0  0  0
   33.7398   15.1944    7.7764 H   0  0  0  0  0  0  0  0  0  0  0  0
   35.4061   15.0331    8.2574 H   0  0  0  0  0  0  0  0  0  0  0  0
   35.6617   16.6727    5.1217 H   0  0  0  0  0  0  0  0  0  0  0  0
   36.6439   16.3734    6.5487 H   0  0  0  0  0  0  0  0  0  0  0  0
   37.1042   20.0375    6.0448 H   0  0  0  0  0  0  0  0  0  0  0  0
   37.2174   18.3210    5.6324 H   0  0  0  0  0  0  0  0  0  0  0  0
   37.5747   18.8502    7.2982 H   0  0  0  0  0  0  0  0  0  0  0  0
   35.4333   19.9617    8.5861 H   0  0  0  0  0  0  0  0  0  0  0  0
   35.1958   20.9101    7.0858 H   0  0  0  0  0  0  0  0  0  0  0  0
   33.8953   19.8624    7.6904 H   0  0  0  0  0  0  0  0  0  0  0  0
   31.2658   12.9127    7.9109 H   0  0  0  0  0  0  0  0  0  0  0  0
   29.0792   10.7922    9.3546 H   0  0  0  0  0  0  0  0  0  0  0  0
  1  2  1  0
  2  3  4  0
  3  4  4  0
  4  5  1  0
  4  6  4  0
  6  7  1  0
  7  8  1  0
  8  9  2  0
  8 10  1  0
 10 11  1  0
 11 12  1  0
 12 13  1  0
 13 14  2  0
 13 15  1  0
 15 16  1  0
 15 17  1  0
  6 18  4  0
 18 19  4  0
 19 20  1  0
 19  2  4  0
  1 21  1  0
  1 22  1  0
  1 23  1  0
  3 24  1  0
  5 25  1  0
  5 26  1  0
  5 27  1  0
  7 28  1  0
 10 29  1  0
 10 30  1  0
 12 31  1  0
 12 32  1  0
 16 33  1  0
 16 34  1  0
 16 35  1  0
 17 36  1  0
 17 37  1  0
 17 38  1  0
 18 39  1  0
 20 40  1  0
M  END
