LIG
     RDKit          3D

 42 44  0  0  0  0  0  0  0  0999 V2000
   28.4820   16.7650    9.7690 C   0  0  0  0  0  0  0  0  0  0  0  0
   28.8690   15.5850    9.0100 N   0  0  0  0  0  0  0  0  0  0  0  0
   27.8900   14.7750    8.3110 C   0  0  0  0  0  0  0  0  0  0  0  0
   28.5940   13.4330    8.1660 C   0  0  0  0  0  0  0  0  0  0  0  0
   30.0580   13.6540    8.5870 C   0  0  0  0  0  0  0  0  0  0  0  0
   30.9510   13.3300    7.5050 O   0  0  0  0  0  0  0  0  0  0  0  0
   31.3600   12.0190    7.3410 C   0  0  0  0  0  0  0  0  0  0  0  0
   30.8090   10.9600    8.0540 C   0  0  0  0  0  0  0  0  0  0  0  0
   31.3020    9.7050    7.8000 C   0  0  0  0  0  0  0  0  0  0  0  0
   32.2980    9.4490    6.8970 C   0  0  0  0  0  0  0  0  0  0  0  0
   32.8360   10.5190    6.2010 C   0  0  0  0  0  0  0  0  0  0  0  0
   33.3300   11.7430    4.6780 N   0  0  0  0  0  0  0  0  0  0  0  0
   33.5900   13.0680    4.7540 C   0  0  0  0  0  0  0  0  0  0  0  0
   33.4420   13.7460    5.7670 O   0  0  0  0  0  0  0  0  0  0  0  0
   34.1200   13.7080    3.4770 C   0  0  0  0  0  0  0  0  0  0  0  0
   33.0230   14.1560    2.5380 C   0  0  0  0  0  0  0  0  0  0  0  0
   33.7650   14.2490    1.2210 C   0  0  0  0  0  0  0  0  0  0  0  0
   34.7960   13.1450    1.3220 C   0  0  0  0  0  0  0  0  0  0  0  0
   34.9020   12.7780    2.7050 O   0  0  0  0  0  0  0  0  0  0  0  0
   32.3710   11.8060    6.4170 C   0  0  0  0  0  0  0  0  0  0  0  0
   30.1260   15.1410    8.9140 C   0  0  0  0  0  0  0  0  0  0  0  0
   31.1310   15.8110    9.0820 O   0  0  0  0  0  0  0  0  0  0  0  0
   27.6330   17.2354    9.2692 H   0  0  0  0  0  0  0  0  0  0  0  0
   28.5724   17.6424    9.1269 H   0  0  0  0  0  0  0  0  0  0  0  0
   27.4531   16.6628   10.1180 H   0  0  0  0  0  0  0  0  0  0  0  0
   26.9706   14.7021    8.8954 H   0  0  0  0  0  0  0  0  0  0  0  0
   27.6859   15.2339    7.3392 H   0  0  0  0  0  0  0  0  0  0  0  0
   28.4893   13.0308    7.1392 H   0  0  0  0  0  0  0  0  0  0  0  0
   28.1219   12.6987    8.8501 H   0  0  0  0  0  0  0  0  0  0  0  0
   30.2748   13.0393    9.4862 H   0  0  0  0  0  0  0  0  0  0  0  0
   30.0349   11.1234    8.7742 H   0  0  0  0  0  0  0  0  0  0  0  0
   30.8622    8.8409    8.3610 H   0  0  0  0  0  0  0  0  0  0  0  0
   32.6297    8.4367    6.7446 H   0  0  0  0  0  0  0  0  0  0  0  0
   33.3983   11.1303    3.9528 H   0  0  0  0  0  0  0  0  0  0  0  0
   33.1625   12.2270    3.0330 H   0  0  0  0  0  0  0  0  0  0  0  0
   32.1821   13.4623    2.5034 H   0  0  0  0  0  0  0  0  0  0  0  0
   32.6373   15.1422    2.8129 H   0  0  0  0  0  0  0  0  0  0  0  0
   34.2110   15.2363    1.0407 H   0  0  0  0  0  0  0  0  0  0  0  0
   33.0700   14.0388    0.3934 H   0  0  0  0  0  0  0  0  0  0  0  0
   35.7855   13.4922    0.9885 H   0  0  0  0  0  0  0  0  0  0  0  0
   34.5274   12.2616    0.7266 H   0  0  0  0  0  0  0  0  0  0  0  0
   32.7876   12.6228    5.8461 H   0  0  0  0  0  0  0  0  0  0  0  0
  1  2  1  0
  2  3  1  0
  3  4  1  0
  4  5  1  0
  5  6  1  0
  6  7  1  0
  7  8  4  0
  8  9  4  0
  9 10  4  0
 10 11  4  0
 11 12  1  0
 12 13  1  0
 13 14  2  0
 13 15  1  0
 15 16  1  0
 16 17  1  0
 17 18  1  0
 18 19  1  0
 11 20  4  0
  5 21  1  0
 21 22  2  0
 21  2  1  0
 20  7  4  0
 19 15  1  0
  1 23  1  0
  1 24  1  0
  1 25  1  0
  3 26  1  0
  3 27  1  0
  4 28  1  0
  4 29  1  0
  5 30  1  0
  8 31  1  0
  9 32  1  0
 10 33  1  0
 12 34  1  0
 15 35  1  0
 16 36  1  0
 16 37  1  0
 17 38  1  0
 17 39  1  0
 18 40  1  0
 18 41  1  0
 20 42  1  0
M  END
