LIG
     RDKit          3D

 42 43  0  0  0  0  0  0  0  0999 V2000
   31.0939    8.7660    6.2018 C   0  0  0  0  0  0  0  0  0  0  0  0
   32.2776    9.6310    6.3779 C   0  0  0  0  0  0  0  0  0  0  0  0
   33.4371    9.1228    6.9792 C   0  0  0  0  0  0  0  0  0  0  0  0
   34.5080    9.9639    7.2887 C   0  0  0  0  0  0  0  0  0  0  0  0
   34.4483   11.2931    6.9317 C   0  0  0  0  0  0  0  0  0  0  0  0
   35.3947   12.1415    7.3965 O   0  0  0  0  0  0  0  0  0  0  0  0
   35.3903   13.4255    6.8102 C   0  0  0  0  0  0  0  0  0  0  0  0
   34.3437   14.5274    7.1346 C   0  0  0  0  0  0  0  0  0  0  0  0
   33.7678   14.5874    8.2200 O   0  0  0  0  0  0  0  0  0  0  0  0
   34.2337   15.5513    6.1851 N   0  0  0  0  0  0  0  0  0  0  0  0
   34.3088   16.8899    6.7534 C   0  0  0  0  0  0  0  0  0  0  0  0
   35.7929   17.2990    6.7774 C   0  0  0  0  0  0  0  0  0  0  0  0
   36.3697   17.2607    5.4528 O   0  0  0  0  0  0  0  0  0  0  0  0
   36.2433   15.9686    4.8375 C   0  0  0  0  0  0  0  0  0  0  0  0
   34.7830   15.5047    4.8306 C   0  0  0  0  0  0  0  0  0  0  0  0
   33.3830   11.7263    6.1885 C   0  0  0  0  0  0  0  0  0  0  0  0
   32.2396   10.9731    6.0341 C   0  0  0  0  0  0  0  0  0  0  0  0
   31.1075   11.6475    5.5225 N   0  0  0  0  0  0  0  0  0  0  0  0
   30.9737   13.0270    5.6837 C   0  0  0  0  0  0  0  0  0  0  0  0
   31.5552   13.6535    6.5614 O   0  0  0  0  0  0  0  0  0  0  0  0
   30.0738   13.7482    4.7334 C   0  0  0  0  0  0  0  0  0  0  0  0
   29.8654   15.1517    5.1211 C   0  0  0  0  0  0  0  0  0  0  0  0
   29.6392   16.2689    5.3472 N   0  0  0  0  0  0  0  0  0  0  0  0
   30.7008    8.8960    5.1891 H   0  0  0  0  0  0  0  0  0  0  0  0
   30.3440    9.0495    6.9351 H   0  0  0  0  0  0  0  0  0  0  0  0
   31.3522    7.7146    6.2586 H   0  0  0  0  0  0  0  0  0  0  0  0
   33.5042    8.0885    7.2989 H   0  0  0  0  0  0  0  0  0  0  0  0
   35.3518    9.5835    7.8586 H   0  0  0  0  0  0  0  0  0  0  0  0
   35.5424   13.2973    5.7356 H   0  0  0  0  0  0  0  0  0  0  0  0
   36.3315   13.8763    7.1547 H   0  0  0  0  0  0  0  0  0  0  0  0
   33.8844   16.9315    7.7612 H   0  0  0  0  0  0  0  0  0  0  0  0
   33.7344   17.5614    6.1054 H   0  0  0  0  0  0  0  0  0  0  0  0
   36.3815   16.6458    7.4322 H   0  0  0  0  0  0  0  0  0  0  0  0
   35.8904   18.3244    7.1470 H   0  0  0  0  0  0  0  0  0  0  0  0
   36.6129   16.0522    3.8107 H   0  0  0  0  0  0  0  0  0  0  0  0
   36.8990   15.2719    5.3676 H   0  0  0  0  0  0  0  0  0  0  0  0
   34.6692   14.5107    4.3922 H   0  0  0  0  0  0  0  0  0  0  0  0
   34.1819   16.1935    4.2244 H   0  0  0  0  0  0  0  0  0  0  0  0
   33.3907   12.7195    5.7691 H   0  0  0  0  0  0  0  0  0  0  0  0
   30.3548   11.1066    5.1263 H   0  0  0  0  0  0  0  0  0  0  0  0
   30.5712   13.7299    3.7556 H   0  0  0  0  0  0  0  0  0  0  0  0
   29.1336   13.2287    4.6031 H   0  0  0  0  0  0  0  0  0  0  0  0
  1  2  1  0
  2  3  2  0
  3  4  1  0
  4  5  2  0
  5  6  1  0
  6  7  1  0
  7  8  1  0
  8  9  2  0
  8 10  1  0
 10 11  1  0
 11 12  1  0
 12 13  1  0
 13 14  1  0
 14 15  1  0
  5 16  1  0
 16 17  2  0
 17 18  1  0
 18 19  1  0
 19 20  2  0
 19 21  1  0
 21 22  1  0
 22 23  3  0
 17  2  1  0
 15 10  1  0
  1 24  1  0
  1 25  1  0
  1 26  1  0
  3 27  1  0
  4 28  1  0
  7 29  1  0
  7 30  1  0
 11 31  1  0
 11 32  1  0
 12 33  1  0
 12 34  1  0
 14 35  1  0
 14 36  1  0
 15 37  1  0
 15 38  1  0
 16 39  1  0
 18 40  1  0
 21 41  1  0
 21 42  1  0
M  END
