LIG
     RDKit          3D

 52 54  0  0  0  0  0  0  0  0999 V2000
   30.8480    8.3410    9.6370 C   0  0  0  0  0  0  0  0  0  0  0  0
   31.5630    9.4800    8.9430 C   0  0  0  0  0  0  0  0  0  0  0  0
   32.6580    9.2460    8.1260 C   0  0  0  0  0  0  0  0  0  0  0  0
   33.3470   10.2740    7.4930 C   0  0  0  0  0  0  0  0  0  0  0  0
   34.5920    9.9920    6.6940 C   0  0  0  0  0  0  0  0  0  0  0  0
   32.8900   11.5720    7.6690 C   0  0  0  0  0  0  0  0  0  0  0  0
   33.3940   12.4720    6.7660 O   0  0  0  0  0  0  0  0  0  0  0  0
   32.5070   13.2300    6.0470 C   0  0  0  0  0  0  0  0  0  0  0  0
   32.8430   14.5690    6.5820 C   0  0  0  0  0  0  0  0  0  0  0  0
   32.2450   15.0040    7.5510 O   0  0  0  0  0  0  0  0  0  0  0  0
   33.9260   15.1770    6.0590 N   0  0  0  0  0  0  0  0  0  0  0  0
   34.5050   15.1130    4.7140 C   0  0  0  0  0  0  0  0  0  0  0  0
   35.9790   14.7950    4.8070 C   0  0  0  0  0  0  0  0  0  0  0  0
   36.6530   15.7410    5.6230 O   0  0  0  0  0  0  0  0  0  0  0  0
   36.2000   15.5640    6.9400 C   0  0  0  0  0  0  0  0  0  0  0  0
   34.7260   15.9040    7.0650 C   0  0  0  0  0  0  0  0  0  0  0  0
   31.8380   11.8440    8.5230 C   0  0  0  0  0  0  0  0  0  0  0  0
   30.9510   13.3300    7.5050 O   0  0  0  0  0  0  0  0  0  0  0  0
   30.0580   13.6540    8.5870 C   0  0  0  0  0  0  0  0  0  0  0  0
   28.5940   13.4330    8.1660 C   0  0  0  0  0  0  0  0  0  0  0  0
   27.8900   14.7750    8.3110 C   0  0  0  0  0  0  0  0  0  0  0  0
   28.8690   15.5850    9.0100 N   0  0  0  0  0  0  0  0  0  0  0  0
   28.4820   16.7650    9.7690 C   0  0  0  0  0  0  0  0  0  0  0  0
   30.1260   15.1410    8.9140 C   0  0  0  0  0  0  0  0  0  0  0  0
   31.1310   15.8110    9.0820 O   0  0  0  0  0  0  0  0  0  0  0  0
   31.1650   10.7950    9.1290 C   0  0  0  0  0  0  0  0  0  0  0  0
   30.1042    7.8923    8.9747 H   0  0  0  0  0  0  0  0  0  0  0  0
   29.7777    8.5493    9.7099 H   0  0  0  0  0  0  0  0  0  0  0  0
   30.3522    8.7117   10.5365 H   0  0  0  0  0  0  0  0  0  0  0  0
   32.9928    8.2063    7.9683 H   0  0  0  0  0  0  0  0  0  0  0  0
   34.3899    9.2329    5.9310 H   0  0  0  0  0  0  0  0  0  0  0  0
   35.3913    9.6409    7.3549 H   0  0  0  0  0  0  0  0  0  0  0  0
   34.8977    8.9446    6.7861 H   0  0  0  0  0  0  0  0  0  0  0  0
   32.7084   13.2259    4.9952 H   0  0  0  0  0  0  0  0  0  0  0  0
   31.5107   12.9720    6.3090 H   0  0  0  0  0  0  0  0  0  0  0  0
   34.3566   16.0526    4.1868 H   0  0  0  0  0  0  0  0  0  0  0  0
   33.9685   14.3200    4.1878 H   0  0  0  0  0  0  0  0  0  0  0  0
   36.1328   13.8096    5.2437 H   0  0  0  0  0  0  0  0  0  0  0  0
   36.4433   14.8077    3.8204 H   0  0  0  0  0  0  0  0  0  0  0  0
   36.7918   16.1962    7.5970 H   0  0  0  0  0  0  0  0  0  0  0  0
   36.3681   14.5245    7.2170 H   0  0  0  0  0  0  0  0  0  0  0  0
   34.5542   16.9722    6.8784 H   0  0  0  0  0  0  0  0  0  0  0  0
   34.3632   15.6722    8.0728 H   0  0  0  0  0  0  0  0  0  0  0  0
   30.2705   13.0684    9.5164 H   0  0  0  0  0  0  0  0  0  0  0  0
   28.1265   12.7019    8.8545 H   0  0  0  0  0  0  0  0  0  0  0  0
   28.4814   13.0292    7.1431 H   0  0  0  0  0  0  0  0  0  0  0  0
   26.9708   14.7032    8.8937 H   0  0  0  0  0  0  0  0  0  0  0  0
   27.6908   15.2304    7.3379 H   0  0  0  0  0  0  0  0  0  0  0  0
   29.3095   17.0882   10.4038 H   0  0  0  0  0  0  0  0  0  0  0  0
   28.5433   16.5287   10.8331 H   0  0  0  0  0  0  0  0  0  0  0  0
   27.6140   16.5207   10.3831 H   0  0  0  0  0  0  0  0  0  0  0  0
   30.3104   11.0194    9.7783 H   0  0  0  0  0  0  0  0  0  0  0  0
  1  2  1  0
  2  3  4  0
  3  4  4  0
  4  5  1  0
  4  6  4  0
  6  7  1  0
  7  8  1  0
  8  9  1  0
  9 10  2  0
  9 11  1  0
 11 12  1  0
 12 13  1  0
 13 14  1  0
 14 15  1  0
 15 16  1  0
  6 17  4  0
 17 18  1  0
 18 19  1  0
 19 20  1  0
 20 21  1  0
 21 22  1  0
 22 23  1  0
 22 24  1  0
 24 25  2  0
 17 26  4  0
 26  2  4  0
 16 11  1  0
 24 19  1  0
  1 27  1  0
  1 28  1  0
  1 29  1  0
  3 30  1  0
  5 31  1  0
  5 32  1  0
  5 33  1  0
  8 34  1  0
  8 35  1  0
 12 36  1  0
 12 37  1  0
 13 38  1  0
 13 39  1  0
 15 40  1  0
 15 41  1  0
 16 42  1  0
 16 43  1  0
 19 44  1  0
 20 45  1  0
 20 46  1  0
 21 47  1  0
 21 48  1  0
 23 49  1  0
 23 50  1  0
 23 51  1  0
 26 52  1  0
M  END
$$$$
LIG
     RDKit          3D

 52 54  0  0  0  0  0  0  0  0999 V2000
   30.8480    8.3410    9.6370 C   0  0  0  0  0  0  0  0  0  0  0  0
   31.5630    9.4800    8.9430 C   0  0  0  0  0  0  0  0  0  0  0  0
   32.6580    9.2460    8.1260 C   0  0  0  0  0  0  0  0  0  0  0  0
   33.3470   10.2740    7.4930 C   0  0  0  0  0  0  0  0  0  0  0  0
   34.5920    9.9920    6.6940 C   0  0  0  0  0  0  0  0  0  0  0  0
   32.8900   11.5720    7.6690 C   0  0  0  0  0  0  0  0  0  0  0  0
   33.3940   12.4720    6.7660 O   0  0  0  0  0  0  0  0  0  0  0  0
   32.5070   13.2300    6.0470 C   0  0  0  0  0  0  0  0  0  0  0  0
   32.8430   14.5690    6.5820 C   0  0  0  0  0  0  0  0  0  0  0  0
   32.2450   15.0040    7.5510 O   0  0  0  0  0  0  0  0  0  0  0  0
   33.9260   15.1770    6.0590 N   0  0  0  0  0  0  0  0  0  0  0  0
   34.7260   15.9040    7.0650 C   0  0  0  0  0  0  0  0  0  0  0  0
   36.2000   15.5640    6.9400 C   0  0  0  0  0  0  0  0  0  0  0  0
   36.6530   15.7410    5.6230 O   0  0  0  0  0  0  0  0  0  0  0  0
   35.9790   14.7950    4.8070 C   0  0  0  0  0  0  0  0  0  0  0  0
   34.5050   15.1130    4.7140 C   0  0  0  0  0  0  0  0  0  0  0  0
   31.8380   11.8440    8.5230 C   0  0  0  0  0  0  0  0  0  0  0  0
   30.9510   13.3300    7.5050 O   0  0  0  0  0  0  0  0  0  0  0  0
   30.0580   13.6540    8.5870 C   0  0  0  0  0  0  0  0  0  0  0  0
   28.5940   13.4330    8.1660 C   0  0  0  0  0  0  0  0  0  0  0  0
   27.8900   14.7750    8.3110 C   0  0  0  0  0  0  0  0  0  0  0  0
   28.8690   15.5850    9.0100 N   0  0  0  0  0  0  0  0  0  0  0  0
   28.4820   16.7650    9.7690 C   0  0  0  0  0  0  0  0  0  0  0  0
   30.1260   15.1410    8.9140 C   0  0  0  0  0  0  0  0  0  0  0  0
   31.1310   15.8110    9.0820 O   0  0  0  0  0  0  0  0  0  0  0  0
   31.1650   10.7950    9.1290 C   0  0  0  0  0  0  0  0  0  0  0  0
   29.8025    8.2941    9.3221 H   0  0  0  0  0  0  0  0  0  0  0  0
   30.4574    7.6437    8.8926 H   0  0  0  0  0  0  0  0  0  0  0  0
   30.0220    8.7197   10.2442 H   0  0  0  0  0  0  0  0  0  0  0  0
   32.9808    8.2059    7.9581 H   0  0  0  0  0  0  0  0  0  0  0  0
   34.3513    9.9384    5.6289 H   0  0  0  0  0  0  0  0  0  0  0  0
   34.7791   10.7773    5.9561 H   0  0  0  0  0  0  0  0  0  0  0  0
   35.3328   10.7840    6.8448 H   0  0  0  0  0  0  0  0  0  0  0  0
   32.6668   13.1894    5.0496 H   0  0  0  0  0  0  0  0  0  0  0  0
   31.5694   12.9916    6.4045 H   0  0  0  0  0  0  0  0  0  0  0  0
   34.3415   15.5889    8.0401 H   0  0  0  0  0  0  0  0  0  0  0  0
   34.5830   16.9797    6.9723 H   0  0  0  0  0  0  0  0  0  0  0  0
   36.8034   16.1835    7.6223 H   0  0  0  0  0  0  0  0  0  0  0  0
   36.3656   14.5154    7.2248 H   0  0  0  0  0  0  0  0  0  0  0  0
   36.1254   13.8014    5.2501 H   0  0  0  0  0  0  0  0  0  0  0  0
   36.4471   14.7812    3.8116 H   0  0  0  0  0  0  0  0  0  0  0  0
   34.3507   16.0510    4.1857 H   0  0  0  0  0  0  0  0  0  0  0  0
   33.9752   14.3179    4.1884 H   0  0  0  0  0  0  0  0  0  0  0  0
   29.7217   14.6928    7.0385 H   0  0  0  0  0  0  0  0  0  0  0  0
   28.0759   12.6446    8.7435 H   0  0  0  0  0  0  0  0  0  0  0  0
   28.5672   13.1202    7.1031 H   0  0  0  0  0  0  0  0  0  0  0  0
   27.6475   15.2238    7.3462 H   0  0  0  0  0  0  0  0  0  0  0  0
   26.9934   14.7051    8.9306 H   0  0  0  0  0  0  0  0  0  0  0  0
   29.3571   17.1919   10.2617 H   0  0  0  0  0  0  0  0  0  0  0  0
   27.7530   16.4681   10.5255 H   0  0  0  0  0  0  0  0  0  0  0  0
   28.0450   17.4957    9.0870 H   0  0  0  0  0  0  0  0  0  0  0  0
   30.2985   10.9781    9.7698 H   0  0  0  0  0  0  0  0  0  0  0  0
  1  2  1  0
  2  3  4  0
  3  4  4  0
  4  5  1  0
  4  6  4  0
  6  7  1  0
  7  8  1  0
  8  9  1  0
  9 10  2  0
  9 11  1  0
 11 12  1  0
 12 13  1  0
 13 14  1  0
 14 15  1  0
 15 16  1  0
  6 17  4  0
 17 18  1  0
 18 19  1  0
 19 20  1  0
 20 21  1  0
 21 22  1  0
 22 23  1  0
 22 24  1  0
 24 25  2  0
 17 26  4  0
 26  2  4  0
 16 11  1  0
 24 19  1  0
  1 27  1  0
  1 28  1  0
  1 29  1  0
  3 30  1  0
  5 31  1  0
  5 32  1  0
  5 33  1  0
  8 34  1  0
  8 35  1  0
 12 36  1  0
 12 37  1  0
 13 38  1  0
 13 39  1  0
 15 40  1  0
 15 41  1  0
 16 42  1  0
 16 43  1  0
 19 44  1  0
 20 45  1  0
 20 46  1  0
 21 47  1  0
 21 48  1  0
 23 49  1  0
 23 50  1  0
 23 51  1  0
 26 52  1  0
M  END
$$$$
LIG
     RDKit          3D

 52 54  0  0  0  0  0  0  0  0999 V2000
   30.8480    8.3410    9.6370 C   0  0  0  0  0  0  0  0  0  0  0  0
   31.5630    9.4800    8.9430 C   0  0  0  0  0  0  0  0  0  0  0  0
   32.6580    9.2460    8.1260 C   0  0  0  0  0  0  0  0  0  0  0  0
   33.3470   10.2740    7.4930 C   0  0  0  0  0  0  0  0  0  0  0  0
   34.5920    9.9920    6.6940 C   0  0  0  0  0  0  0  0  0  0  0  0
   32.8900   11.5720    7.6690 C   0  0  0  0  0  0  0  0  0  0  0  0
   33.3940   12.4720    6.7660 O   0  0  0  0  0  0  0  0  0  0  0  0
   32.5070   13.2300    6.0470 C   0  0  0  0  0  0  0  0  0  0  0  0
   32.8430   14.5690    6.5820 C   0  0  0  0  0  0  0  0  0  0  0  0
   32.2450   15.0040    7.5510 O   0  0  0  0  0  0  0  0  0  0  0  0
   33.9260   15.1770    6.0590 N   0  0  0  0  0  0  0  0  0  0  0  0
   34.5050   15.1130    4.7140 C   0  0  0  0  0  0  0  0  0  0  0  0
   35.9790   14.7950    4.8070 C   0  0  0  0  0  0  0  0  0  0  0  0
   36.6530   15.7410    5.6230 O   0  0  0  0  0  0  0  0  0  0  0  0
   36.2000   15.5640    6.9400 C   0  0  0  0  0  0  0  0  0  0  0  0
   34.7260   15.9040    7.0650 C   0  0  0  0  0  0  0  0  0  0  0  0
   31.8380   11.8440    8.5230 C   0  0  0  0  0  0  0  0  0  0  0  0
   30.9510   13.3300    7.5050 O   0  0  0  0  0  0  0  0  0  0  0  0
   30.0580   13.6540    8.5870 C   0  0  0  0  0  0  0  0  0  0  0  0
   28.5940   13.4330    8.1660 C   0  0  0  0  0  0  0  0  0  0  0  0
   27.8900   14.7750    8.3110 C   0  0  0  0  0  0  0  0  0  0  0  0
   28.8690   15.5850    9.0100 N   0  0  0  0  0  0  0  0  0  0  0  0
   28.4820   16.7650    9.7690 C   0  0  0  0  0  0  0  0  0  0  0  0
   30.1260   15.1410    8.9140 C   0  0  0  0  0  0  0  0  0  0  0  0
   31.1310   15.8110    9.0820 O   0  0  0  0  0  0  0  0  0  0  0  0
   31.1650   10.7950    9.1290 C   0  0  0  0  0  0  0  0  0  0  0  0
   31.0417    7.3963    9.1179 H   0  0  0  0  0  0  0  0  0  0  0  0
   31.1930    8.2611   10.6731 H   0  0  0  0  0  0  0  0  0  0  0  0
   31.5643    7.5952    9.9951 H   0  0  0  0  0  0  0  0  0  0  0  0
   32.9911    8.2065    7.9673 H   0  0  0  0  0  0  0  0  0  0  0  0
   35.4700   10.3835    7.2191 H   0  0  0  0  0  0  0  0  0  0  0  0
   34.5227   10.4515    5.7012 H   0  0  0  0  0  0  0  0  0  0  0  0
   34.7349    8.9146    6.5453 H   0  0  0  0  0  0  0  0  0  0  0  0
   32.7576   13.1841    5.0126 H   0  0  0  0  0  0  0  0  0  0  0  0
   31.4841   13.0305    6.2797 H   0  0  0  0  0  0  0  0  0  0  0  0
   34.3397   16.0547    4.1802 H   0  0  0  0  0  0  0  0  0  0  0  0
   33.9664   14.3159    4.1862 H   0  0  0  0  0  0  0  0  0  0  0  0
   36.1333   13.8107    5.2351 H   0  0  0  0  0  0  0  0  0  0  0  0
   36.4387   14.8215    3.8208 H   0  0  0  0  0  0  0  0  0  0  0  0
   36.3791   14.5254    7.2322 H   0  0  0  0  0  0  0  0  0  0  0  0
   36.7932   16.2063    7.5949 H   0  0  0  0  0  0  0  0  0  0  0  0
   34.5602   16.9687    6.8705 H   0  0  0  0  0  0  0  0  0  0  0  0
   34.3590   15.6688    8.0632 H   0  0  0  0  0  0  0  0  0  0  0  0
   29.7438   14.6712    7.0580 H   0  0  0  0  0  0  0  0  0  0  0  0
   28.1178   12.6815    8.8228 H   0  0  0  0  0  0  0  0  0  0  0  0
   28.5116   13.0337    7.1407 H   0  0  0  0  0  0  0  0  0  0  0  0
   26.9727   14.6984    8.8943 H   0  0  0  0  0  0  0  0  0  0  0  0
   27.6889   15.2321    7.3412 H   0  0  0  0  0  0  0  0  0  0  0  0
   28.6331   16.5705   10.8322 H   0  0  0  0  0  0  0  0  0  0  0  0
   29.0847   17.6176    9.4586 H   0  0  0  0  0  0  0  0  0  0  0  0
   27.4298   16.9746    9.5714 H   0  0  0  0  0  0  0  0  0  0  0  0
   30.2906   10.9755    9.7594 H   0  0  0  0  0  0  0  0  0  0  0  0
  1  2  1  0
  2  3  4  0
  3  4  4  0
  4  5  1  0
  4  6  4  0
  6  7  1  0
  7  8  1  0
  8  9  1  0
  9 10  2  0
  9 11  1  0
 11 12  1  0
 12 13  1  0
 13 14  1  0
 14 15  1  0
 15 16  1  0
  6 17  4  0
 17 18  1  0
 18 19  1  0
 19 20  1  0
 20 21  1  0
 21 22  1  0
 22 23  1  0
 22 24  1  0
 24 25  2  0
 17 26  4  0
 26  2  4  0
 16 11  1  0
 24 19  1  0
  1 27  1  0
  1 28  1  0
  1 29  1  0
  3 30  1  0
  5 31  1  0
  5 32  1  0
  5 33  1  0
  8 34  1  0
  8 35  1  0
 12 36  1  0
 12 37  1  0
 13 38  1  0
 13 39  1  0
 15 40  1  0
 15 41  1  0
 16 42  1  0
 16 43  1  0
 19 44  1  0
 20 45  1  0
 20 46  1  0
 21 47  1  0
 21 48  1  0
 23 49  1  0
 23 50  1  0
 23 51  1  0
 26 52  1  0
M  END
$$$$
