LIG
     RDKit          3D

 39 40  0  0  0  0  0  0  0  0999 V2000
   28.6260   15.8415    8.3068 N   0  0  0  0  0  0  0  0  0  0  0  0
   28.3725   14.7225    8.1448 C   0  0  0  0  0  0  0  0  0  0  0  0
   28.1153   13.2971    7.9856 C   0  0  0  0  0  0  0  0  0  0  0  0
   29.3204   12.6391    7.3834 C   0  0  0  0  0  0  0  0  0  0  0  0
   29.4083   12.4576    6.1702 O   0  0  0  0  0  0  0  0  0  0  0  0
   30.3204   12.3740    8.3084 N   0  0  0  0  0  0  0  0  0  0  0  0
   31.6619   12.5060    7.9075 C   0  0  0  0  0  0  0  0  0  0  0  0
   32.1575   11.9095    6.7570 C   0  0  0  0  0  0  0  0  0  0  0  0
   33.4304   12.2495    6.3207 C   0  0  0  0  0  0  0  0  0  0  0  0
   33.9282   11.7165    5.1661 O   0  0  0  0  0  0  0  0  0  0  0  0
   33.3601   12.3812    4.0428 C   0  0  0  0  0  0  0  0  0  0  0  0
   33.7823   13.8372    3.8712 C   0  0  0  0  0  0  0  0  0  0  0  0
   32.9367   14.7279    3.9859 O   0  0  0  0  0  0  0  0  0  0  0  0
   35.1113   14.0781    3.5714 N   0  0  0  0  0  0  0  0  0  0  0  0
   35.5975   15.4486    3.4337 C   0  0  0  0  0  0  0  0  0  0  0  0
   36.7692   15.6812    4.3925 C   0  0  0  0  0  0  0  0  0  0  0  0
   37.8241   14.7235    4.1698 O   0  0  0  0  0  0  0  0  0  0  0  0
   37.3423   13.3867    4.3654 C   0  0  0  0  0  0  0  0  0  0  0  0
   36.1670   13.0725    3.4324 C   0  0  0  0  0  0  0  0  0  0  0  0
   34.2265   13.1306    7.0476 C   0  0  0  0  0  0  0  0  0  0  0  0
   33.7579   13.6680    8.2372 C   0  0  0  0  0  0  0  0  0  0  0  0
   32.4814   13.3465    8.6607 C   0  0  0  0  0  0  0  0  0  0  0  0
   32.0154   13.8665    9.8038 F   0  0  0  0  0  0  0  0  0  0  0  0
   27.2716   13.1173    7.3153 H   0  0  0  0  0  0  0  0  0  0  0  0
   27.9064   12.8438    8.9541 H   0  0  0  0  0  0  0  0  0  0  0  0
   30.1225   12.6657    9.2709 H   0  0  0  0  0  0  0  0  0  0  0  0
   31.5539   11.2066    6.1951 H   0  0  0  0  0  0  0  0  0  0  0  0
   33.6368   11.8271    3.1387 H   0  0  0  0  0  0  0  0  0  0  0  0
   32.2698   12.3603    4.0755 H   0  0  0  0  0  0  0  0  0  0  0  0
   35.9430   15.5527    2.3981 H   0  0  0  0  0  0  0  0  0  0  0  0
   34.7936   16.1696    3.5865 H   0  0  0  0  0  0  0  0  0  0  0  0
   37.1955   16.6758    4.2327 H   0  0  0  0  0  0  0  0  0  0  0  0
   36.4459   15.5980    5.4357 H   0  0  0  0  0  0  0  0  0  0  0  0
   38.1714   12.7023    4.1602 H   0  0  0  0  0  0  0  0  0  0  0  0
   37.0652   13.2616    5.4167 H   0  0  0  0  0  0  0  0  0  0  0  0
   35.8110   12.0577    3.6097 H   0  0  0  0  0  0  0  0  0  0  0  0
   36.5038   13.1262    2.3901 H   0  0  0  0  0  0  0  0  0  0  0  0
   35.2226   13.3861    6.7043 H   0  0  0  0  0  0  0  0  0  0  0  0
   34.3728   14.3592    8.7984 H   0  0  0  0  0  0  0  0  0  0  0  0
  1  2  3  0
  2  3  1  0
  3  4  1  0
  4  5  2  0
  4  6  1  0
  6  7  1  0
  7  8  2  0
  8  9  1  0
  9 10  1  0
 10 11  1  0
 11 12  1  0
 12 13  2  0
 12 14  1  0
 14 15  1  0
 15 16  1  0
 16 17  1  0
 17 18  1  0
 18 19  1  0
  9 20  2  0
 20 21  1  0
 21 22  2  0
 22 23  1  0
 22  7  1  0
 19 14  1  0
  3 24  1  0
  3 25  1  0
  6 26  1  0
  8 27  1  0
 11 28  1  0
 11 29  1  0
 15 30  1  0
 15 31  1  0
 16 32  1  0
 16 33  1  0
 18 34  1  0
 18 35  1  0
 19 36  1  0
 19 37  1  0
 20 38  1  0
 21 39  1  0
M  END
