LIG
     RDKit          3D

 27 27  0  0  0  0  0  0  0  0999 V2000
   -2.4789   -2.8813    0.3825 C   0  0  0  0  0  0  0  0  0  0  0  0
   -1.3970   -1.8315    0.3248 C   0  0  0  0  0  0  0  0  0  0  0  0
   -0.3236   -2.0037    0.8916 O   0  0  0  0  0  0  0  0  0  0  0  0
   -1.7786   -0.7313   -0.4115 N   0  0  0  0  0  0  0  0  0  0  0  0
   -1.0992    0.4796   -0.7315 C   0  0  0  0  0  0  0  0  0  0  0  0
   -1.8748    1.3571   -1.5219 C   0  0  0  0  0  0  0  0  0  0  0  0
   -1.3906    2.5952   -1.9411 C   0  0  0  0  0  0  0  0  0  0  0  0
   -0.1135    2.9846   -1.5772 C   0  0  0  0  0  0  0  0  0  0  0  0
    0.6748    2.1369   -0.7969 C   0  0  0  0  0  0  0  0  0  0  0  0
    0.2087    0.8836   -0.3617 C   0  0  0  0  0  0  0  0  0  0  0  0
    1.0330    0.0533    0.4235 N   0  0  0  0  0  0  0  0  0  0  0  0
    2.3139    0.2654    0.8870 C   0  0  0  0  0  0  0  0  0  0  0  0
    3.0228    1.2545    0.7113 O   0  0  0  0  0  0  0  0  0  0  0  0
    2.8426   -0.9127    1.7156 C   0  0  0  0  0  0  0  0  0  0  0  0
    4.1889   -0.7146    2.1301 O   0  0  0  0  0  0  0  0  0  0  0  0
   -2.1360   -3.7301    0.9811 H   0  0  0  0  0  0  0  0  0  0  0  0
   -2.7094   -3.2337   -0.6268 H   0  0  0  0  0  0  0  0  0  0  0  0
   -3.3774   -2.4651    0.8466 H   0  0  0  0  0  0  0  0  0  0  0  0
   -2.7148   -0.7929   -0.7948 H   0  0  0  0  0  0  0  0  0  0  0  0
   -2.8833    1.0874   -1.8285 H   0  0  0  0  0  0  0  0  0  0  0  0
   -2.0095    3.2502   -2.5486 H   0  0  0  0  0  0  0  0  0  0  0  0
    0.2805    3.9466   -1.8955 H   0  0  0  0  0  0  0  0  0  0  0  0
    1.6683    2.4936   -0.5431 H   0  0  0  0  0  0  0  0  0  0  0  0
    0.6185   -0.8371    0.6921 H   0  0  0  0  0  0  0  0  0  0  0  0
    2.7998   -1.8273    1.1173 H   0  0  0  0  0  0  0  0  0  0  0  0
    2.2217   -1.0286    2.6088 H   0  0  0  0  0  0  0  0  0  0  0  0
    4.4130    0.2019    1.8669 H   0  0  0  0  0  0  0  0  0  0  0  0
  1  2  1  0
  2  3  2  0
  2  4  1  0
  4  5  1  0
  5  6  2  0
  6  7  1  0
  7  8  2  0
  8  9  1  0
  9 10  2  0
 10 11  1  0
 11 12  1  0
 12 13  2  0
 12 14  1  0
 14 15  1  0
 10  5  1  0
  1 16  1  0
  1 17  1  0
  1 18  1  0
  4 19  1  0
  6 20  1  0
  7 21  1  0
  8 22  1  0
  9 23  1  0
 11 24  1  0
 14 25  1  0
 14 26  1  0
 15 27  1  0
M  END
