LIG
     RDKit          3D

 27 27  0  0  0  0  0  0  0  0999 V2000
   34.4770    9.6170    4.1420 C   0  0  0  0  0  0  0  0  0  0  0  0
   34.7220   11.0190    4.6240 C   0  0  0  0  0  0  0  0  0  0  0  0
   35.7630   11.6170    4.3630 O   0  0  0  0  0  0  0  0  0  0  0  0
   33.0238   10.5366    5.7938 N   0  0  0  0  0  0  0  0  0  0  0  0
   31.5450   11.9340    7.6020 C   0  0  0  0  0  0  0  0  0  0  0  0
   30.7220   10.8640    7.9390 C   0  0  0  0  0  0  0  0  0  0  0  0
   31.0170    9.5590    7.5720 C   0  0  0  0  0  0  0  0  0  0  0  0
   32.1560    9.3390    6.8090 C   0  0  0  0  0  0  0  0  0  0  0  0
   33.0110   10.3720    6.4380 C   0  0  0  0  0  0  0  0  0  0  0  0
   32.7080   11.6650    6.8730 C   0  0  0  0  0  0  0  0  0  0  0  0
   33.6520   12.7090    6.6590 N   0  0  0  0  0  0  0  0  0  0  0  0
   34.4250   13.2280    7.6390 C   0  0  0  0  0  0  0  0  0  0  0  0
   34.9120   12.5690    8.5560 O   0  0  0  0  0  0  0  0  0  0  0  0
   34.6680   14.7180    7.5670 C   0  0  0  0  0  0  0  0  0  0  0  0
   35.0470   15.1300    6.2680 O   0  0  0  0  0  0  0  0  0  0  0  0
   34.6878    9.5560    3.0700 H   0  0  0  0  0  0  0  0  0  0  0  0
   33.4417    9.3145    4.3307 H   0  0  0  0  0  0  0  0  0  0  0  0
   33.6995    9.6234    3.3710 H   0  0  0  0  0  0  0  0  0  0  0  0
   32.5324    9.6689    5.6134 H   0  0  0  0  0  0  0  0  0  0  0  0
   29.8021   11.0178    8.5125 H   0  0  0  0  0  0  0  0  0  0  0  0
   30.3866    8.7371    7.8668 H   0  0  0  0  0  0  0  0  0  0  0  0
   32.3925    8.3104    6.4848 H   0  0  0  0  0  0  0  0  0  0  0  0
   33.8570   10.1358    5.8418 H   0  0  0  0  0  0  0  0  0  0  0  0
   33.7315   13.0554    5.7515 H   0  0  0  0  0  0  0  0  0  0  0  0
   33.7552   15.2592    7.8433 H   0  0  0  0  0  0  0  0  0  0  0  0
   35.4731   14.9912    8.2597 H   0  0  0  0  0  0  0  0  0  0  0  0
   35.0648   16.1102    6.2931 H   0  0  0  0  0  0  0  0  0  0  0  0
  1  2  1  0
  2  3  2  0
  2  4  1  0
  4  5  1  0
  5  6  4  0
  6  7  4  0
  7  8  4  0
  8  9  4  0
  9 10  4  0
 10 11  1  0
 11 12  1  0
 12 13  2  0
 12 14  1  0
 14 15  1  0
 10  5  4  0
  1 16  1  0
  1 17  1  0
  1 18  1  0
  4 19  1  0
  6 20  1  0
  7 21  1  0
  8 22  1  0
  9 23  1  0
 11 24  1  0
 14 25  1  0
 14 26  1  0
 15 27  1  0
M  END
$$$$
