LIG
     RDKit          3D

 42 44  0  0  0  0  0  0  0  0999 V2000
   28.4991   16.3644    8.3560 C   0  0  0  0  0  0  0  0  0  0  0  0
   28.8992   15.0275    8.1924 N   0  0  0  0  0  0  0  0  0  0  0  0
   28.2499   14.1363    7.2819 C   0  0  0  0  0  0  0  0  0  0  0  0
   29.2901   13.0662    7.1000 C   0  0  0  0  0  0  0  0  0  0  0  0
   29.9302   13.0113    8.4867 C   0  0  0  0  0  0  0  0  0  0  0  0
   31.2824   12.6534    8.5842 O   0  0  0  0  0  0  0  0  0  0  0  0
   31.6509   11.6602    7.7569 C   0  0  0  0  0  0  0  0  0  0  0  0
   31.2447   10.3460    7.8943 C   0  0  0  0  0  0  0  0  0  0  0  0
   31.8458    9.4020    7.0766 C   0  0  0  0  0  0  0  0  0  0  0  0
   32.7418    9.8138    6.0822 C   0  0  0  0  0  0  0  0  0  0  0  0
   33.2855    8.8769    5.3014 F   0  0  0  0  0  0  0  0  0  0  0  0
   33.0438   11.1627    5.8795 C   0  0  0  0  0  0  0  0  0  0  0  0
   33.7723   11.6316    4.7656 N   0  0  0  0  0  0  0  0  0  0  0  0
   33.7371   12.9556    4.3256 C   0  0  0  0  0  0  0  0  0  0  0  0
   33.0719   13.8685    4.8174 O   0  0  0  0  0  0  0  0  0  0  0  0
   34.6269   13.2192    3.1139 C   0  0  0  0  0  0  0  0  0  0  0  0
   34.0750   14.3649    2.2733 C   0  0  0  0  0  0  0  0  0  0  0  0
   34.5734   14.0193    0.8975 C   0  0  0  0  0  0  0  0  0  0  0  0
   34.4762   12.5117    0.9029 C   0  0  0  0  0  0  0  0  0  0  0  0
   34.7252   12.0785    2.2475 O   0  0  0  0  0  0  0  0  0  0  0  0
   32.5682   12.0593    6.8078 C   0  0  0  0  0  0  0  0  0  0  0  0
   29.9148   14.4565    8.9183 C   0  0  0  0  0  0  0  0  0  0  0  0
   30.6733   15.0395    9.6796 O   0  0  0  0  0  0  0  0  0  0  0  0
   27.5683   16.3544    8.9207 H   0  0  0  0  0  0  0  0  0  0  0  0
   28.4394   16.7973    7.3661 H   0  0  0  0  0  0  0  0  0  0  0  0
   29.2549   16.9285    8.8732 H   0  0  0  0  0  0  0  0  0  0  0  0
   27.3379   13.7602    7.7398 H   0  0  0  0  0  0  0  0  0  0  0  0
   28.0298   14.6252    6.3331 H   0  0  0  0  0  0  0  0  0  0  0  0
   28.8543   12.1124    6.7917 H   0  0  0  0  0  0  0  0  0  0  0  0
   30.0147   13.3669    6.3332 H   0  0  0  0  0  0  0  0  0  0  0  0
   29.2884   12.4312    9.1381 H   0  0  0  0  0  0  0  0  0  0  0  0
   30.5430   10.0485    8.6677 H   0  0  0  0  0  0  0  0  0  0  0  0
   31.6245    8.3472    7.2075 H   0  0  0  0  0  0  0  0  0  0  0  0
   34.1897   10.9488    4.1382 H   0  0  0  0  0  0  0  0  0  0  0  0
   35.6356   13.4505    3.4750 H   0  0  0  0  0  0  0  0  0  0  0  0
   32.9777   14.3711    2.2741 H   0  0  0  0  0  0  0  0  0  0  0  0
   34.4141   15.3447    2.6228 H   0  0  0  0  0  0  0  0  0  0  0  0
   34.0005   14.4831    0.0905 H   0  0  0  0  0  0  0  0  0  0  0  0
   35.6211   14.3259    0.7959 H   0  0  0  0  0  0  0  0  0  0  0  0
   35.1947   12.0412    0.2259 H   0  0  0  0  0  0  0  0  0  0  0  0
   33.4694   12.1793    0.6275 H   0  0  0  0  0  0  0  0  0  0  0  0
   32.8768   13.0997    6.8275 H   0  0  0  0  0  0  0  0  0  0  0  0
  1  2  1  0
  2  3  1  0
  3  4  1  0
  4  5  1  0
  5  6  1  0
  6  7  1  0
  7  8  2  0
  8  9  1  0
  9 10  2  0
 10 11  1  0
 10 12  1  0
 12 13  1  0
 13 14  1  0
 14 15  2  0
 14 16  1  0
 16 17  1  0
 17 18  1  0
 18 19  1  0
 19 20  1  0
 12 21  2  0
  5 22  1  0
 22 23  2  0
 22  2  1  0
 21  7  1  0
 20 16  1  0
  1 24  1  0
  1 25  1  0
  1 26  1  0
  3 27  1  0
  3 28  1  0
  4 29  1  0
  4 30  1  0
  5 31  1  0
  8 32  1  0
  9 33  1  0
 13 34  1  0
 16 35  1  0
 17 36  1  0
 17 37  1  0
 18 38  1  0
 18 39  1  0
 19 40  1  0
 19 41  1  0
 21 42  1  0
M  END
