LIG
     RDKit          3D

 48 49  0  0  0  0  0  0  0  0999 V2000
   30.8480    8.3410    9.6370 C   0  0  0  0  0  0  0  0  0  0  0  0
   31.5630    9.4800    8.9430 C   0  0  0  0  0  0  0  0  0  0  0  0
   32.6580    9.2460    8.1260 C   0  0  0  0  0  0  0  0  0  0  0  0
   33.3470   10.2740    7.4930 C   0  0  0  0  0  0  0  0  0  0  0  0
   32.8900   11.5720    7.6690 C   0  0  0  0  0  0  0  0  0  0  0  0
   33.3940   12.4720    6.7660 O   0  0  0  0  0  0  0  0  0  0  0  0
   32.5070   13.2300    6.0470 C   0  0  0  0  0  0  0  0  0  0  0  0
   32.8430   14.5690    6.5820 C   0  0  0  0  0  0  0  0  0  0  0  0
   32.2450   15.0040    7.5510 O   0  0  0  0  0  0  0  0  0  0  0  0
   33.9260   15.1770    6.0590 N   0  0  0  0  0  0  0  0  0  0  0  0
   34.5050   15.1130    4.7140 C   0  0  0  0  0  0  0  0  0  0  0  0
   35.9790   14.7950    4.8070 C   0  0  0  0  0  0  0  0  0  0  0  0
   36.6530   15.7410    5.6230 O   0  0  0  0  0  0  0  0  0  0  0  0
   36.2000   15.5640    6.9400 C   0  0  0  0  0  0  0  0  0  0  0  0
   34.7260   15.9040    7.0650 C   0  0  0  0  0  0  0  0  0  0  0  0
   31.8380   11.8440    8.5230 C   0  0  0  0  0  0  0  0  0  0  0  0
   31.1650   10.7950    9.1290 C   0  0  0  0  0  0  0  0  0  0  0  0
   29.4280   11.6110    9.1450 O   0  0  0  0  0  0  0  0  0  0  0  0
   28.8670   12.8920    9.4310 C   0  0  0  0  0  0  0  0  0  0  0  0
   29.9260   13.8300    9.9860 C   0  0  0  0  0  0  0  0  0  0  0  0
   31.1030   13.5010    9.9720 O   0  0  0  0  0  0  0  0  0  0  0  0
   29.5320   15.0110   10.4940 N   0  0  0  0  0  0  0  0  0  0  0  0
   30.5000   15.9370   11.0760 C   0  0  0  0  0  0  0  0  0  0  0  0
   28.1410   15.4480   10.5470 C   0  0  0  0  0  0  0  0  0  0  0  0
   30.4256    7.6611    8.8928 H   0  0  0  0  0  0  0  0  0  0  0  0
   31.5448    7.7975   10.2802 H   0  0  0  0  0  0  0  0  0  0  0  0
   30.0289    8.7080   10.2628 H   0  0  0  0  0  0  0  0  0  0  0  0
   33.0081    8.2114    7.9573 H   0  0  0  0  0  0  0  0  0  0  0  0
   34.2062   10.0572    6.8792 H   0  0  0  0  0  0  0  0  0  0  0  0
   32.8037   13.1922    5.0324 H   0  0  0  0  0  0  0  0  0  0  0  0
   31.4966   12.9977    6.2136 H   0  0  0  0  0  0  0  0  0  0  0  0
   33.9690   14.3187    4.1864 H   0  0  0  0  0  0  0  0  0  0  0  0
   34.3434   16.0528    4.1831 H   0  0  0  0  0  0  0  0  0  0  0  0
   36.1352   13.8093    5.2370 H   0  0  0  0  0  0  0  0  0  0  0  0
   36.4398   14.8212    3.8225 H   0  0  0  0  0  0  0  0  0  0  0  0
   36.3799   14.5263    7.2292 H   0  0  0  0  0  0  0  0  0  0  0  0
   36.7924   16.2030    7.5963 H   0  0  0  0  0  0  0  0  0  0  0  0
   34.3609   15.6702    8.0685 H   0  0  0  0  0  0  0  0  0  0  0  0
   34.5564   16.9704    6.8744 H   0  0  0  0  0  0  0  0  0  0  0  0
   31.5886   12.8792    8.7258 H   0  0  0  0  0  0  0  0  0  0  0  0
   28.1406   12.7261   10.2151 H   0  0  0  0  0  0  0  0  0  0  0  0
   28.3785   13.3103    8.5652 H   0  0  0  0  0  0  0  0  0  0  0  0
   31.1176   16.3631   10.2810 H   0  0  0  0  0  0  0  0  0  0  0  0
   29.9509   16.7334   11.5881 H   0  0  0  0  0  0  0  0  0  0  0  0
   31.1584   15.4358   11.7877 H   0  0  0  0  0  0  0  0  0  0  0  0
   27.9588   16.1278    9.7081 H   0  0  0  0  0  0  0  0  0  0  0  0
   27.9164   15.9673   11.4832 H   0  0  0  0  0  0  0  0  0  0  0  0
   28.1085   16.5366   10.6556 H   0  0  0  0  0  0  0  0  0  0  0  0
  1  2  1  0
  2  3  4  0
  3  4  4  0
  4  5  4  0
  5  6  1  0
  6  7  1  0
  7  8  1  0
  8  9  2  0
  8 10  1  0
 10 11  1  0
 11 12  1  0
 12 13  1  0
 13 14  1  0
 14 15  1  0
  5 16  4  0
 16 17  4  0
 17 18  1  0
 18 19  1  0
 19 20  1  0
 20 21  2  0
 20 22  1  0
 22 23  1  0
 22 24  1  0
 17  2  4  0
 15 10  1  0
  1 25  1  0
  1 26  1  0
  1 27  1  0
  3 28  1  0
  4 29  1  0
  7 30  1  0
  7 31  1  0
 11 32  1  0
 11 33  1  0
 12 34  1  0
 12 35  1  0
 14 36  1  0
 14 37  1  0
 15 38  1  0
 15 39  1  0
 16 40  1  0
 19 41  1  0
 19 42  1  0
 23 43  1  0
 23 44  1  0
 23 45  1  0
 24 46  1  0
 24 47  1  0
 24 48  1  0
M  END
$$$$
LIG
     RDKit          3D

 48 49  0  0  0  0  0  0  0  0999 V2000
   30.8480    8.3410    9.6370 C   0  0  0  0  0  0  0  0  0  0  0  0
   31.5630    9.4800    8.9430 C   0  0  0  0  0  0  0  0  0  0  0  0
   32.6580    9.2460    8.1260 C   0  0  0  0  0  0  0  0  0  0  0  0
   33.3470   10.2740    7.4930 C   0  0  0  0  0  0  0  0  0  0  0  0
   32.8900   11.5720    7.6690 C   0  0  0  0  0  0  0  0  0  0  0  0
   33.3940   12.4720    6.7660 O   0  0  0  0  0  0  0  0  0  0  0  0
   32.5070   13.2300    6.0470 C   0  0  0  0  0  0  0  0  0  0  0  0
   32.8430   14.5690    6.5820 C   0  0  0  0  0  0  0  0  0  0  0  0
   32.2450   15.0040    7.5510 O   0  0  0  0  0  0  0  0  0  0  0  0
   33.9260   15.1770    6.0590 N   0  0  0  0  0  0  0  0  0  0  0  0
   34.7260   15.9040    7.0650 C   0  0  0  0  0  0  0  0  0  0  0  0
   36.2000   15.5640    6.9400 C   0  0  0  0  0  0  0  0  0  0  0  0
   36.6530   15.7410    5.6230 O   0  0  0  0  0  0  0  0  0  0  0  0
   35.9790   14.7950    4.8070 C   0  0  0  0  0  0  0  0  0  0  0  0
   34.5050   15.1130    4.7140 C   0  0  0  0  0  0  0  0  0  0  0  0
   31.8380   11.8440    8.5230 C   0  0  0  0  0  0  0  0  0  0  0  0
   31.1650   10.7950    9.1290 C   0  0  0  0  0  0  0  0  0  0  0  0
   29.4280   11.6110    9.1450 O   0  0  0  0  0  0  0  0  0  0  0  0
   28.8670   12.8920    9.4310 C   0  0  0  0  0  0  0  0  0  0  0  0
   29.9260   13.8300    9.9860 C   0  0  0  0  0  0  0  0  0  0  0  0
   31.1030   13.5010    9.9720 O   0  0  0  0  0  0  0  0  0  0  0  0
   29.5320   15.0110   10.4940 N   0  0  0  0  0  0  0  0  0  0  0  0
   28.1410   15.4480   10.5470 C   0  0  0  0  0  0  0  0  0  0  0  0
   30.5000   15.9370   11.0760 C   0  0  0  0  0  0  0  0  0  0  0  0
   31.4911    7.4564    9.6692 H   0  0  0  0  0  0  0  0  0  0  0  0
   30.5908    8.6061   10.6659 H   0  0  0  0  0  0  0  0  0  0  0  0
   29.9244    8.1030    9.1027 H   0  0  0  0  0  0  0  0  0  0  0  0
   33.0039    8.2074    7.9602 H   0  0  0  0  0  0  0  0  0  0  0  0
   34.2101   10.0657    6.8930 H   0  0  0  0  0  0  0  0  0  0  0  0
   32.6371   13.1736    5.0180 H   0  0  0  0  0  0  0  0  0  0  0  0
   31.5333   12.9860    6.3449 H   0  0  0  0  0  0  0  0  0  0  0  0
   34.5565   16.9721    6.8727 H   0  0  0  0  0  0  0  0  0  0  0  0
   34.3583   15.6803    8.0738 H   0  0  0  0  0  0  0  0  0  0  0  0
   36.3706   14.5277    7.2219 H   0  0  0  0  0  0  0  0  0  0  0  0
   36.7889   16.1982    7.5942 H   0  0  0  0  0  0  0  0  0  0  0  0
   36.1336   13.8105    5.2414 H   0  0  0  0  0  0  0  0  0  0  0  0
   36.4407   14.8127    3.8231 H   0  0  0  0  0  0  0  0  0  0  0  0
   34.3525   16.0515    4.1890 H   0  0  0  0  0  0  0  0  0  0  0  0
   33.9708   14.3193    4.1865 H   0  0  0  0  0  0  0  0  0  0  0  0
   31.5237   12.8594    8.7455 H   0  0  0  0  0  0  0  0  0  0  0  0
   28.4695   13.3293    8.5087 H   0  0  0  0  0  0  0  0  0  0  0  0
   28.0846   12.7906   10.1942 H   0  0  0  0  0  0  0  0  0  0  0  0
   27.5147   14.9193    9.8280 H   0  0  0  0  0  0  0  0  0  0  0  0
   28.0920   16.5163   10.3243 H   0  0  0  0  0  0  0  0  0  0  0  0
   27.8637   15.8408    9.5629 H   0  0  0  0  0  0  0  0  0  0  0  0
   29.9517   16.7347   11.5830 H   0  0  0  0  0  0  0  0  0  0  0  0
   31.1574   15.4392   11.7912 H   0  0  0  0  0  0  0  0  0  0  0  0
   31.1151   16.3584   10.2725 H   0  0  0  0  0  0  0  0  0  0  0  0
  1  2  1  0
  2  3  4  0
  3  4  4  0
  4  5  4  0
  5  6  1  0
  6  7  1  0
  7  8  1  0
  8  9  2  0
  8 10  1  0
 10 11  1  0
 11 12  1  0
 12 13  1  0
 13 14  1  0
 14 15  1  0
  5 16  4  0
 16 17  4  0
 17 18  1  0
 18 19  1  0
 19 20  1  0
 20 21  2  0
 20 22  1  0
 22 23  1  0
 22 24  1  0
 17  2  4  0
 15 10  1  0
  1 25  1  0
  1 26  1  0
  1 27  1  0
  3 28  1  0
  4 29  1  0
  7 30  1  0
  7 31  1  0
 11 32  1  0
 11 33  1  0
 12 34  1  0
 12 35  1  0
 14 36  1  0
 14 37  1  0
 15 38  1  0
 15 39  1  0
 16 40  1  0
 19 41  1  0
 19 42  1  0
 23 43  1  0
 23 44  1  0
 23 45  1  0
 24 46  1  0
 24 47  1  0
 24 48  1  0
M  END
$$$$
LIG
     RDKit          3D

 48 49  0  0  0  0  0  0  0  0999 V2000
   30.8480    8.3410    9.6370 C   0  0  0  0  0  0  0  0  0  0  0  0
   31.5630    9.4800    8.9430 C   0  0  0  0  0  0  0  0  0  0  0  0
   32.6580    9.2460    8.1260 C   0  0  0  0  0  0  0  0  0  0  0  0
   33.3470   10.2740    7.4930 C   0  0  0  0  0  0  0  0  0  0  0  0
   32.8900   11.5720    7.6690 C   0  0  0  0  0  0  0  0  0  0  0  0
   33.3940   12.4720    6.7660 O   0  0  0  0  0  0  0  0  0  0  0  0
   32.5070   13.2300    6.0470 C   0  0  0  0  0  0  0  0  0  0  0  0
   32.8430   14.5690    6.5820 C   0  0  0  0  0  0  0  0  0  0  0  0
   32.2450   15.0040    7.5510 O   0  0  0  0  0  0  0  0  0  0  0  0
   33.9260   15.1770    6.0590 N   0  0  0  0  0  0  0  0  0  0  0  0
   34.5050   15.1130    4.7140 C   0  0  0  0  0  0  0  0  0  0  0  0
   35.9790   14.7950    4.8070 C   0  0  0  0  0  0  0  0  0  0  0  0
   36.6530   15.7410    5.6230 O   0  0  0  0  0  0  0  0  0  0  0  0
   36.2000   15.5640    6.9400 C   0  0  0  0  0  0  0  0  0  0  0  0
   34.7260   15.9040    7.0650 C   0  0  0  0  0  0  0  0  0  0  0  0
   31.8380   11.8440    8.5230 C   0  0  0  0  0  0  0  0  0  0  0  0
   31.1650   10.7950    9.1290 C   0  0  0  0  0  0  0  0  0  0  0  0
   29.4280   11.6110    9.1450 O   0  0  0  0  0  0  0  0  0  0  0  0
   28.8670   12.8920    9.4310 C   0  0  0  0  0  0  0  0  0  0  0  0
   29.9260   13.8300    9.9860 C   0  0  0  0  0  0  0  0  0  0  0  0
   31.1030   13.5010    9.9720 O   0  0  0  0  0  0  0  0  0  0  0  0
   29.5320   15.0110   10.4940 N   0  0  0  0  0  0  0  0  0  0  0  0
   28.1410   15.4480   10.5470 C   0  0  0  0  0  0  0  0  0  0  0  0
   30.5000   15.9370   11.0760 C   0  0  0  0  0  0  0  0  0  0  0  0
   30.3536    8.7055   10.5414 H   0  0  0  0  0  0  0  0  0  0  0  0
   31.2344    8.2191   10.6523 H   0  0  0  0  0  0  0  0  0  0  0  0
   31.5470    7.5531    9.9305 H   0  0  0  0  0  0  0  0  0  0  0  0
   33.0047    8.2116    7.9627 H   0  0  0  0  0  0  0  0  0  0  0  0
   34.2040   10.0314    6.8939 H   0  0  0  0  0  0  0  0  0  0  0  0
   31.5023   12.9998    6.3158 H   0  0  0  0  0  0  0  0  0  0  0  0
   32.7370   13.2051    5.0076 H   0  0  0  0  0  0  0  0  0  0  0  0
   33.9689   14.3187    4.1857 H   0  0  0  0  0  0  0  0  0  0  0  0
   34.3423   16.0534    4.1831 H   0  0  0  0  0  0  0  0  0  0  0  0
   36.4380   14.8235    3.8215 H   0  0  0  0  0  0  0  0  0  0  0  0
   36.1355   13.8097    5.2351 H   0  0  0  0  0  0  0  0  0  0  0  0
   36.7921   16.2040    7.5950 H   0  0  0  0  0  0  0  0  0  0  0  0
   36.3789   14.5266    7.2317 H   0  0  0  0  0  0  0  0  0  0  0  0
   34.5578   16.9700    6.8731 H   0  0  0  0  0  0  0  0  0  0  0  0
   34.3577   15.6693    8.0669 H   0  0  0  0  0  0  0  0  0  0  0  0
   31.5694   12.8764    8.6886 H   0  0  0  0  0  0  0  0  0  0  0  0
   28.0806   12.7872   10.1928 H   0  0  0  0  0  0  0  0  0  0  0  0
   28.4325   13.3517    8.5319 H   0  0  0  0  0  0  0  0  0  0  0  0
   27.7999   15.6910    9.5370 H   0  0  0  0  0  0  0  0  0  0  0  0
   27.4932   14.8004    9.9552 H   0  0  0  0  0  0  0  0  0  0  0  0
   27.5356   14.6338   10.9538 H   0  0  0  0  0  0  0  0  0  0  0  0
   31.1100   16.3514   10.2694 H   0  0  0  0  0  0  0  0  0  0  0  0
   31.1514   15.4388   11.7969 H   0  0  0  0  0  0  0  0  0  0  0  0
   29.9632   16.7408   11.5856 H   0  0  0  0  0  0  0  0  0  0  0  0
  1  2  1  0
  2  3  4  0
  3  4  4  0
  4  5  4  0
  5  6  1  0
  6  7  1  0
  7  8  1  0
  8  9  2  0
  8 10  1  0
 10 11  1  0
 11 12  1  0
 12 13  1  0
 13 14  1  0
 14 15  1  0
  5 16  4  0
 16 17  4  0
 17 18  1  0
 18 19  1  0
 19 20  1  0
 20 21  2  0
 20 22  1  0
 22 23  1  0
 22 24  1  0
 17  2  4  0
 15 10  1  0
  1 25  1  0
  1 26  1  0
  1 27  1  0
  3 28  1  0
  4 29  1  0
  7 30  1  0
  7 31  1  0
 11 32  1  0
 11 33  1  0
 12 34  1  0
 12 35  1  0
 14 36  1  0
 14 37  1  0
 15 38  1  0
 15 39  1  0
 16 40  1  0
 19 41  1  0
 19 42  1  0
 23 43  1  0
 23 44  1  0
 23 45  1  0
 24 46  1  0
 24 47  1  0
 24 48  1  0
M  END
$$$$
