LIG
     RDKit          3D

 28 28  0  0  0  0  0  0  0  0999 V2000
   34.1344    9.8780    5.1371 C   0  0  0  0  0  0  0  0  0  0  0  0
   33.0538   10.0447    6.0773 N   0  0  0  0  0  0  0  0  0  0  0  0
   32.4450    8.9406    6.5427 N   0  0  0  0  0  0  0  0  0  0  0  0
   31.5582    9.4007    7.4205 C   0  0  0  0  0  0  0  0  0  0  0  0
   31.5535   10.8078    7.4685 C   0  0  0  0  0  0  0  0  0  0  0  0
   30.6557   11.5770    8.1803 N   0  0  0  0  0  0  0  0  0  0  0  0
   30.1237   12.7447    7.6617 C   0  0  0  0  0  0  0  0  0  0  0  0
   30.2771   13.1468    6.5122 O   0  0  0  0  0  0  0  0  0  0  0  0
   29.2690   13.4477    8.6786 C   0  0  0  0  0  0  0  0  0  0  0  0
   28.7785   14.7250    8.1984 C   0  0  0  0  0  0  0  0  0  0  0  0
   28.3606   15.7648    7.9123 N   0  0  0  0  0  0  0  0  0  0  0  0
   32.6252   11.2061    6.6817 C   0  0  0  0  0  0  0  0  0  0  0  0
   33.2781   12.4287    6.5045 N   0  0  0  0  0  0  0  0  0  0  0  0
   33.7499   13.1307    7.6156 C   0  0  0  0  0  0  0  0  0  0  0  0
   33.4880   12.8702    8.7916 O   0  0  0  0  0  0  0  0  0  0  0  0
   34.7579   14.2433    7.2591 C   0  0  0  0  0  0  0  0  0  0  0  0
   34.6858   14.6900    5.9132 O   0  0  0  0  0  0  0  0  0  0  0  0
   34.9471   10.5628    5.3869 H   0  0  0  0  0  0  0  0  0  0  0  0
   34.5028    8.8500    5.1778 H   0  0  0  0  0  0  0  0  0  0  0  0
   33.7494   10.0991    4.1391 H   0  0  0  0  0  0  0  0  0  0  0  0
   30.9208    8.6916    7.9353 H   0  0  0  0  0  0  0  0  0  0  0  0
   30.1145   11.1005    8.8982 H   0  0  0  0  0  0  0  0  0  0  0  0
   28.4238   12.8060    8.9377 H   0  0  0  0  0  0  0  0  0  0  0  0
   29.8743   13.6218    9.5742 H   0  0  0  0  0  0  0  0  0  0  0  0
   33.8720   12.5631    5.6907 H   0  0  0  0  0  0  0  0  0  0  0  0
   34.5692   15.0890    7.9256 H   0  0  0  0  0  0  0  0  0  0  0  0
   35.7672   13.8644    7.4428 H   0  0  0  0  0  0  0  0  0  0  0  0
   34.9543   15.6360    5.9049 H   0  0  0  0  0  0  0  0  0  0  0  0
  1  2  1  0
  2  3  1  0
  3  4  2  0
  4  5  1  0
  5  6  1  0
  6  7  1  0
  7  8  2  0
  7  9  1  0
  9 10  1  0
 10 11  3  0
  5 12  2  0
 12 13  1  0
 13 14  1  0
 14 15  2  0
 14 16  1  0
 16 17  1  0
 12  2  1  0
  1 18  1  0
  1 19  1  0
  1 20  1  0
  4 21  1  0
  6 22  1  0
  9 23  1  0
  9 24  1  0
 13 25  1  0
 16 26  1  0
 16 27  1  0
 17 28  1  0
M  END
