LIG
     RDKit          3D

 34 34  0  0  0  0  0  0  0  0999 V2000
   34.4604   15.1086    1.1932 C   0  0  0  0  0  0  0  0  0  0  0  0
   34.1309   14.7347    2.5578 N   0  0  0  0  0  0  0  0  0  0  0  0
   33.0595   13.7611    2.7124 C   0  0  0  0  0  0  0  0  0  0  0  0
   35.1240   14.9588    3.5327 C   0  0  0  0  0  0  0  0  0  0  0  0
   36.1783   15.5360    3.2778 O   0  0  0  0  0  0  0  0  0  0  0  0
   34.7969   14.4291    4.9337 C   0  0  0  0  0  0  0  0  0  0  0  0
   35.7461   14.5446    5.9727 O   0  0  0  0  0  0  0  0  0  0  0  0
   35.1907   14.5603    7.2807 C   0  0  0  0  0  0  0  0  0  0  0  0
   34.2367   13.4418    7.7435 C   0  0  0  0  0  0  0  0  0  0  0  0
   34.2233   12.9913    8.8895 O   0  0  0  0  0  0  0  0  0  0  0  0
   33.2570   13.1276    6.8022 N   0  0  0  0  0  0  0  0  0  0  0  0
   32.5882   11.9090    6.9331 C   0  0  0  0  0  0  0  0  0  0  0  0
   33.1331   10.7706    6.3350 C   0  0  0  0  0  0  0  0  0  0  0  0
   32.5317    9.5352    6.5422 C   0  0  0  0  0  0  0  0  0  0  0  0
   31.4237    9.4496    7.3765 C   0  0  0  0  0  0  0  0  0  0  0  0
   30.9005   10.6059    7.9426 C   0  0  0  0  0  0  0  0  0  0  0  0
   29.8700   10.4695    8.7985 O   0  0  0  0  0  0  0  0  0  0  0  0
   31.4341   11.8517    7.6933 C   0  0  0  0  0  0  0  0  0  0  0  0
   35.1445   15.9614    1.1659 H   0  0  0  0  0  0  0  0  0  0  0  0
   34.9346   14.2551    0.6995 H   0  0  0  0  0  0  0  0  0  0  0  0
   33.5447   15.3821    0.6609 H   0  0  0  0  0  0  0  0  0  0  0  0
   32.6524   13.7723    3.7253 H   0  0  0  0  0  0  0  0  0  0  0  0
   32.2473   13.9967    2.0185 H   0  0  0  0  0  0  0  0  0  0  0  0
   33.4563   12.7653    2.4943 H   0  0  0  0  0  0  0  0  0  0  0  0
   34.6189   13.3577    4.7995 H   0  0  0  0  0  0  0  0  0  0  0  0
   33.8803   14.9500    5.2198 H   0  0  0  0  0  0  0  0  0  0  0  0
   34.6814   15.5123    7.4278 H   0  0  0  0  0  0  0  0  0  0  0  0
   36.0361   14.5381    7.9755 H   0  0  0  0  0  0  0  0  0  0  0  0
   32.6217   13.9115    6.7698 H   0  0  0  0  0  0  0  0  0  0  0  0
   34.0455   10.8355    5.7478 H   0  0  0  0  0  0  0  0  0  0  0  0
   32.9647    8.6359    6.1139 H   0  0  0  0  0  0  0  0  0  0  0  0
   30.9808    8.4832    7.6117 H   0  0  0  0  0  0  0  0  0  0  0  0
   29.7823   11.2320    9.4037 H   0  0  0  0  0  0  0  0  0  0  0  0
   31.0206   12.7336    8.1674 H   0  0  0  0  0  0  0  0  0  0  0  0
  1  2  1  0
  2  3  1  0
  2  4  1  0
  4  5  2  0
  4  6  1  0
  6  7  1  0
  7  8  1  0
  8  9  1  0
  9 10  2  0
  9 11  1  0
 11 12  1  0
 12 13  2  0
 13 14  1  0
 14 15  2  0
 15 16  1  0
 16 17  1  0
 16 18  2  0
 18 12  1  0
  1 19  1  0
  1 20  1  0
  1 21  1  0
  3 22  1  0
  3 23  1  0
  3 24  1  0
  6 25  1  0
  6 26  1  0
  8 27  1  0
  8 28  1  0
 11 29  1  0
 13 30  1  0
 14 31  1  0
 15 32  1  0
 17 33  1  0
 18 34  1  0
M  END
