LIG
     RDKit          3D

 38 39  0  0  0  0  0  0  0  0999 V2000
   32.1842    8.0924    7.4919 C   0  0  0  0  0  0  0  0  0  0  0  0
   32.1164    9.5058    7.1008 C   0  0  0  0  0  0  0  0  0  0  0  0
   31.2006   10.2525    7.8147 C   0  0  0  0  0  0  0  0  0  0  0  0
   31.0828   11.5767    7.5135 C   0  0  0  0  0  0  0  0  0  0  0  0
   30.0447   12.2746    8.1184 N   0  0  0  0  0  0  0  0  0  0  0  0
   29.2051   13.0117    7.3103 C   0  0  0  0  0  0  0  0  0  0  0  0
   29.3065   13.1410    6.0923 O   0  0  0  0  0  0  0  0  0  0  0  0
   28.0936   13.6553    8.0515 C   0  0  0  0  0  0  0  0  0  0  0  0
   28.3760   15.0672    8.1611 C   0  0  0  0  0  0  0  0  0  0  0  0
   28.5796   16.1955    8.3054 N   0  0  0  0  0  0  0  0  0  0  0  0
   31.9130   12.1745    6.5683 C   0  0  0  0  0  0  0  0  0  0  0  0
   32.8443   11.4310    5.8518 C   0  0  0  0  0  0  0  0  0  0  0  0
   33.6499   11.9954    4.8505 N   0  0  0  0  0  0  0  0  0  0  0  0
   33.7414   13.3417    4.5427 C   0  0  0  0  0  0  0  0  0  0  0  0
   33.2237   14.2666    5.1636 O   0  0  0  0  0  0  0  0  0  0  0  0
   34.5745   13.6121    3.2889 C   0  0  0  0  0  0  0  0  0  0  0  0
   33.8256   14.5519    2.3544 C   0  0  0  0  0  0  0  0  0  0  0  0
   34.3663   14.1597    1.0065 C   0  0  0  0  0  0  0  0  0  0  0  0
   34.5345   12.6661    1.1597 C   0  0  0  0  0  0  0  0  0  0  0  0
   34.8617   12.4191    2.5354 O   0  0  0  0  0  0  0  0  0  0  0  0
   32.9313   10.0694    6.1074 C   0  0  0  0  0  0  0  0  0  0  0  0
   32.1906    8.0102    8.5833 H   0  0  0  0  0  0  0  0  0  0  0  0
   33.1002    7.6805    7.1041 H   0  0  0  0  0  0  0  0  0  0  0  0
   31.3120    7.5567    7.1616 H   0  0  0  0  0  0  0  0  0  0  0  0
   30.5559    9.7759    8.5488 H   0  0  0  0  0  0  0  0  0  0  0  0
   29.6504   11.8709    8.9689 H   0  0  0  0  0  0  0  0  0  0  0  0
   27.9653   13.2091    9.0403 H   0  0  0  0  0  0  0  0  0  0  0  0
   27.1823   13.4799    7.4760 H   0  0  0  0  0  0  0  0  0  0  0  0
   31.7772   13.2321    6.3817 H   0  0  0  0  0  0  0  0  0  0  0  0
   34.2448   11.3853    4.2970 H   0  0  0  0  0  0  0  0  0  0  0  0
   35.5336   14.0406    3.6013 H   0  0  0  0  0  0  0  0  0  0  0  0
   32.7442   14.3687    2.3898 H   0  0  0  0  0  0  0  0  0  0  0  0
   33.9920   15.6061    2.5960 H   0  0  0  0  0  0  0  0  0  0  0  0
   35.3435   14.6312    0.8490 H   0  0  0  0  0  0  0  0  0  0  0  0
   33.7150   14.4344    0.1729 H   0  0  0  0  0  0  0  0  0  0  0  0
   33.5999   12.1382    0.9410 H   0  0  0  0  0  0  0  0  0  0  0  0
   35.3212   12.2623    0.5164 H   0  0  0  0  0  0  0  0  0  0  0  0
   33.6412    9.4447    5.5717 H   0  0  0  0  0  0  0  0  0  0  0  0
  1  2  1  0
  2  3  2  0
  3  4  1  0
  4  5  1  0
  5  6  1  0
  6  7  2  0
  6  8  1  0
  8  9  1  0
  9 10  3  0
  4 11  2  0
 11 12  1  0
 12 13  1  0
 13 14  1  0
 14 15  2  0
 14 16  1  0
 16 17  1  0
 17 18  1  0
 18 19  1  0
 19 20  1  0
 12 21  2  0
 21  2  1  0
 20 16  1  0
  1 22  1  0
  1 23  1  0
  1 24  1  0
  3 25  1  0
  5 26  1  0
  8 27  1  0
  8 28  1  0
 11 29  1  0
 13 30  1  0
 16 31  1  0
 17 32  1  0
 17 33  1  0
 18 34  1  0
 18 35  1  0
 19 36  1  0
 19 37  1  0
 21 38  1  0
M  END
