LIG
     RDKit          3D

 45 46  0  0  0  0  0  0  0  0999 V2000
   30.8480    8.3410    9.6370 C   0  0  0  0  0  0  0  0  0  0  0  0
   31.5630    9.4800    8.9430 C   0  0  0  0  0  0  0  0  0  0  0  0
   32.6580    9.2460    8.1260 C   0  0  0  0  0  0  0  0  0  0  0  0
   33.3470   10.2740    7.4930 C   0  0  0  0  0  0  0  0  0  0  0  0
   34.5920    9.9920    6.6940 C   0  0  0  0  0  0  0  0  0  0  0  0
   32.8900   11.5720    7.6690 C   0  0  0  0  0  0  0  0  0  0  0  0
   33.3940   12.4720    6.7660 O   0  0  0  0  0  0  0  0  0  0  0  0
   32.5070   13.2300    6.0470 C   0  0  0  0  0  0  0  0  0  0  0  0
   32.8430   14.5690    6.5820 C   0  0  0  0  0  0  0  0  0  0  0  0
   32.2450   15.0040    7.5510 O   0  0  0  0  0  0  0  0  0  0  0  0
   33.9260   15.1770    6.0590 N   0  0  0  0  0  0  0  0  0  0  0  0
   34.7260   15.9040    7.0650 C   0  0  0  0  0  0  0  0  0  0  0  0
   36.2000   15.5640    6.9400 C   0  0  0  0  0  0  0  0  0  0  0  0
   36.6530   15.7410    5.6230 O   0  0  0  0  0  0  0  0  0  0  0  0
   35.9790   14.7950    4.8070 C   0  0  0  0  0  0  0  0  0  0  0  0
   34.5050   15.1130    4.7140 C   0  0  0  0  0  0  0  0  0  0  0  0
   31.8380   11.8440    8.5230 C   0  0  0  0  0  0  0  0  0  0  0  0
   31.1650   10.7950    9.1290 C   0  0  0  0  0  0  0  0  0  0  0  0
   29.9663   11.5418    8.6432 N   0  0  0  0  0  0  0  0  0  0  0  0
   29.7090   12.5130    7.5840 C   0  0  0  0  0  0  0  0  0  0  0  0
   29.9180   12.6920    6.3980 O   0  0  0  0  0  0  0  0  0  0  0  0
   28.7130   13.3600    8.3510 C   0  0  0  0  0  0  0  0  0  0  0  0
   28.5830   14.6820    7.7450 C   0  0  0  0  0  0  0  0  0  0  0  0
   28.5580   15.7160    7.2730 N   0  0  0  0  0  0  0  0  0  0  0  0
   30.7056    8.5763   10.6952 H   0  0  0  0  0  0  0  0  0  0  0  0
   31.4213    7.4112    9.5786 H   0  0  0  0  0  0  0  0  0  0  0  0
   29.8797    8.1604    9.1625 H   0  0  0  0  0  0  0  0  0  0  0  0
   33.0008    8.2122    7.9668 H   0  0  0  0  0  0  0  0  0  0  0  0
   34.4888   10.3843    5.6776 H   0  0  0  0  0  0  0  0  0  0  0  0
   35.0647   10.9168    6.3482 H   0  0  0  0  0  0  0  0  0  0  0  0
   35.4608   10.4511    7.1760 H   0  0  0  0  0  0  0  0  0  0  0  0
   32.8315   13.2271    5.0389 H   0  0  0  0  0  0  0  0  0  0  0  0
   31.5234   12.9172    6.1443 H   0  0  0  0  0  0  0  0  0  0  0  0
   34.3623   15.6742    8.0731 H   0  0  0  0  0  0  0  0  0  0  0  0
   34.5535   16.9722    6.8796 H   0  0  0  0  0  0  0  0  0  0  0  0
   36.3685   14.5251    7.2175 H   0  0  0  0  0  0  0  0  0  0  0  0
   36.7916   16.1967    7.5962 H   0  0  0  0  0  0  0  0  0  0  0  0
   36.4455   14.8069    3.8211 H   0  0  0  0  0  0  0  0  0  0  0  0
   36.1331   13.8086    5.2422 H   0  0  0  0  0  0  0  0  0  0  0  0
   34.3622   16.0561    4.1943 H   0  0  0  0  0  0  0  0  0  0  0  0
   33.9682   14.3229    4.1859 H   0  0  0  0  0  0  0  0  0  0  0  0
   31.5616   12.8531    8.7370 H   0  0  0  0  0  0  0  0  0  0  0  0
   29.2586   11.1668    9.2620 H   0  0  0  0  0  0  0  0  0  0  0  0
   29.0557   13.4387    9.3911 H   0  0  0  0  0  0  0  0  0  0  0  0
   27.7437   12.8448    8.3814 H   0  0  0  0  0  0  0  0  0  0  0  0
  1  2  1  0
  2  3  4  0
  3  4  4  0
  4  5  1  0
  4  6  4  0
  6  7  1  0
  7  8  1  0
  8  9  1  0
  9 10  2  0
  9 11  1  0
 11 12  1  0
 12 13  1  0
 13 14  1  0
 14 15  1  0
 15 16  1  0
  6 17  4  0
 17 18  4  0
 18 19  1  0
 19 20  1  0
 20 21  2  0
 20 22  1  0
 22 23  1  0
 23 24  3  0
 18  2  4  0
 16 11  1  0
  1 25  1  0
  1 26  1  0
  1 27  1  0
  3 28  1  0
  5 29  1  0
  5 30  1  0
  5 31  1  0
  8 32  1  0
  8 33  1  0
 12 34  1  0
 12 35  1  0
 13 36  1  0
 13 37  1  0
 15 38  1  0
 15 39  1  0
 16 40  1  0
 16 41  1  0
 17 42  1  0
 19 43  1  0
 22 44  1  0
 22 45  1  0
M  END
