LIG
     RDKit          3D

 34 34  0  0  0  0  0  0  0  0999 V2000
   30.5000   15.9370   11.0760 C   0  0  0  0  0  0  0  0  0  0  0  0
   29.5320   15.0110   10.4940 N   0  0  0  0  0  0  0  0  0  0  0  0
   28.1410   15.4480   10.5470 C   0  0  0  0  0  0  0  0  0  0  0  0
   29.9260   13.8300    9.9860 C   0  0  0  0  0  0  0  0  0  0  0  0
   31.1030   13.5010    9.9720 O   0  0  0  0  0  0  0  0  0  0  0  0
   28.8670   12.8920    9.4310 C   0  0  0  0  0  0  0  0  0  0  0  0
   29.4280   11.6110    9.1450 O   0  0  0  0  0  0  0  0  0  0  0  0
   30.1520   11.4340    7.9910 C   0  0  0  0  0  0  0  0  0  0  0  0
   30.4800   10.1020    7.7350 C   0  0  0  0  0  0  0  0  0  0  0  0
   31.2880    9.8340    6.6350 C   0  0  0  0  0  0  0  0  0  0  0  0
   31.7330   10.8470    5.8070 C   0  0  0  0  0  0  0  0  0  0  0  0
   31.3810   12.1530    6.0670 C   0  0  0  0  0  0  0  0  0  0  0  0
   33.6520   12.7090    6.6590 N   0  0  0  0  0  0  0  0  0  0  0  0
   34.4250   13.2280    7.6390 C   0  0  0  0  0  0  0  0  0  0  0  0
   34.9637   12.5726    8.5665 O   0  0  0  0  0  0  0  0  0  0  0  0
   34.6680   14.7180    7.5670 C   0  0  0  0  0  0  0  0  0  0  0  0
   35.0470   15.1300    6.2680 S   0  0  0  0  0  0  0  0  0  0  0  0
   30.5900   12.4580    7.1610 C   0  0  0  0  0  0  0  0  0  0  0  0
   31.5240   15.5777   10.9519 H   0  0  0  0  0  0  0  0  0  0  0  0
   30.4082   16.9081   10.5829 H   0  0  0  0  0  0  0  0  0  0  0  0
   30.2832   16.0404   12.1425 H   0  0  0  0  0  0  0  0  0  0  0  0
   27.7254   15.1585   11.5160 H   0  0  0  0  0  0  0  0  0  0  0  0
   28.1011   16.5351   10.4380 H   0  0  0  0  0  0  0  0  0  0  0  0
   27.5406   15.0007    9.7549 H   0  0  0  0  0  0  0  0  0  0  0  0
   28.1455   12.7212   10.2140 H   0  0  0  0  0  0  0  0  0  0  0  0
   28.3829   13.3056    8.5672 H   0  0  0  0  0  0  0  0  0  0  0  0
   30.1207    9.2878    8.3290 H   0  0  0  0  0  0  0  0  0  0  0  0
   31.5672    8.7970    6.4152 H   0  0  0  0  0  0  0  0  0  0  0  0
   32.3481   10.5747    4.9508 H   0  0  0  0  0  0  0  0  0  0  0  0
   33.9444   12.4014    5.6431 H   0  0  0  0  0  0  0  0  0  0  0  0
   33.6982   15.1616    8.0084 H   0  0  0  0  0  0  0  0  0  0  0  0
   35.4008   14.9049    8.4419 H   0  0  0  0  0  0  0  0  0  0  0  0
   34.1936   16.1726    5.9742 H   0  0  0  0  0  0  0  0  0  0  0  0
   30.3058   13.4727    7.3887 H   0  0  0  0  0  0  0  0  0  0  0  0
  1  2  1  0
  2  3  1  0
  2  4  1  0
  4  5  2  0
  4  6  1  0
  6  7  1  0
  7  8  1  0
  8  9  4  0
  9 10  4  0
 10 11  4  0
 11 12  4  0
 12 13  1  0
 13 14  1  0
 14 15  2  0
 14 16  1  0
 16 17  1  0
 12 18  4  0
 18  8  4  0
  1 19  1  0
  1 20  1  0
  1 21  1  0
  3 22  1  0
  3 23  1  0
  3 24  1  0
  6 25  1  0
  6 26  1  0
  9 27  1  0
 10 28  1  0
 11 29  1  0
 13 30  1  0
 16 31  1  0
 16 32  1  0
 17 33  1  0
 18 34  1  0
M  END
