LIG
     RDKit          3D

 47 48  0  0  0  0  0  0  0  0999 V2000
   31.3740   12.7612    6.6630 C   0  0  0  0  0  0  0  0  0  0  0  0
   31.8610   11.3420    6.6030 C   0  0  0  0  0  0  0  0  0  0  0  0
   31.3460   10.4150    7.4890 C   0  0  0  0  0  0  0  0  0  0  0  0
   31.7660    9.0980    7.4680 C   0  0  0  0  0  0  0  0  0  0  0  0
   31.1860    8.0690    8.4070 C   0  0  0  0  0  0  0  0  0  0  0  0
   31.0447   10.6787    7.6914 C   0  0  0  0  0  0  0  0  0  0  0  0
   29.4280   11.6110    9.1450 O   0  0  0  0  0  0  0  0  0  0  0  0
   28.8670   12.8920    9.4310 C   0  0  0  0  0  0  0  0  0  0  0  0
   29.9260   13.8300    9.9860 C   0  0  0  0  0  0  0  0  0  0  0  0
   31.1030   13.5010    9.9720 O   0  0  0  0  0  0  0  0  0  0  0  0
   29.5320   15.0110   10.4940 N   0  0  0  0  0  0  0  0  0  0  0  0
   28.1410   15.4480   10.5470 C   0  0  0  0  0  0  0  0  0  0  0  0
   30.5000   15.9370   11.0760 C   0  0  0  0  0  0  0  0  0  0  0  0
   33.2630    9.6380    5.6520 C   0  0  0  0  0  0  0  0  0  0  0  0
   32.8210   10.9050    5.6820 C   0  0  0  0  0  0  0  0  0  0  0  0
   33.3300   11.7430    4.6780 N   0  0  0  0  0  0  0  0  0  0  0  0
   33.5900   13.0680    4.7540 C   0  0  0  0  0  0  0  0  0  0  0  0
   33.4420   13.7460    5.7670 O   0  0  0  0  0  0  0  0  0  0  0  0
   34.1200   13.7080    3.4770 C   0  0  0  0  0  0  0  0  0  0  0  0
   33.0230   14.1560    2.5380 C   0  0  0  0  0  0  0  0  0  0  0  0
   33.7650   14.2490    1.2210 C   0  0  0  0  0  0  0  0  0  0  0  0
   34.7960   13.1450    1.3220 C   0  0  0  0  0  0  0  0  0  0  0  0
   34.9020   12.7780    2.7050 O   0  0  0  0  0  0  0  0  0  0  0  0
   32.2027   13.4404    6.8880 H   0  0  0  0  0  0  0  0  0  0  0  0
   30.9119   13.0458    5.7121 H   0  0  0  0  0  0  0  0  0  0  0  0
   30.6195   12.8951    7.4457 H   0  0  0  0  0  0  0  0  0  0  0  0
   30.5944   10.7210    8.2216 H   0  0  0  0  0  0  0  0  0  0  0  0
   30.1517    7.8488    8.1279 H   0  0  0  0  0  0  0  0  0  0  0  0
   30.8618    7.1850    7.8503 H   0  0  0  0  0  0  0  0  0  0  0  0
   30.3121    8.4605    8.9361 H   0  0  0  0  0  0  0  0  0  0  0  0
   28.5548   13.3039    8.4814 H   0  0  0  0  0  0  0  0  0  0  0  0
   28.0072   12.7868   10.0665 H   0  0  0  0  0  0  0  0  0  0  0  0
   27.4690   14.6259   10.8038 H   0  0  0  0  0  0  0  0  0  0  0  0
   28.0408   16.2301   11.3043 H   0  0  0  0  0  0  0  0  0  0  0  0
   27.7569   15.2609   11.5541 H   0  0  0  0  0  0  0  0  0  0  0  0
   30.7233   15.6618   12.1080 H   0  0  0  0  0  0  0  0  0  0  0  0
   30.0479   16.4103   11.9506 H   0  0  0  0  0  0  0  0  0  0  0  0
   30.0873   16.9488   11.0738 H   0  0  0  0  0  0  0  0  0  0  0  0
   33.9547    9.2766    6.4193 H   0  0  0  0  0  0  0  0  0  0  0  0
   33.5800   11.2755    3.8081 H   0  0  0  0  0  0  0  0  0  0  0  0
   33.1684   12.2134    3.0368 H   0  0  0  0  0  0  0  0  0  0  0  0
   32.2546   13.3770    2.4614 H   0  0  0  0  0  0  0  0  0  0  0  0
   32.5345   15.0954    2.8085 H   0  0  0  0  0  0  0  0  0  0  0  0
   34.2662   15.2250    1.1438 H   0  0  0  0  0  0  0  0  0  0  0  0
   33.1127   14.1428    0.3454 H   0  0  0  0  0  0  0  0  0  0  0  0
   34.4771   12.2557    0.7666 H   0  0  0  0  0  0  0  0  0  0  0  0
   35.7766   13.4535    0.9464 H   0  0  0  0  0  0  0  0  0  0  0  0
  1  2  1  0
  2  3  4  0
  3  4  4  0
  4  5  1  0
  4  6  4  0
  6  7  1  0
  7  8  1  0
  8  9  1  0
  9 10  2  0
  9 11  1  0
 11 12  1  0
 11 13  1  0
  6 14  4  0
 14 15  4  0
 15 16  1  0
 16 17  1  0
 17 18  2  0
 17 19  1  0
 19 20  1  0
 20 21  1  0
 21 22  1  0
 22 23  1  0
 15  2  4  0
 23 19  1  0
  1 24  1  0
  1 25  1  0
  1 26  1  0
  3 27  1  0
  5 28  1  0
  5 29  1  0
  5 30  1  0
  8 31  1  0
  8 32  1  0
 12 33  1  0
 12 34  1  0
 12 35  1  0
 13 36  1  0
 13 37  1  0
 13 38  1  0
 14 39  1  0
 16 40  1  0
 19 41  1  0
 20 42  1  0
 20 43  1  0
 21 44  1  0
 21 45  1  0
 22 46  1  0
 22 47  1  0
M  END
$$$$
LIG
     RDKit          3D

 47 48  0  0  0  0  0  0  0  0999 V2000
   31.3743   12.7622    6.6547 C   0  0  0  0  0  0  0  0  0  0  0  0
   31.8610   11.3420    6.6030 C   0  0  0  0  0  0  0  0  0  0  0  0
   31.3460   10.4150    7.4890 C   0  0  0  0  0  0  0  0  0  0  0  0
   31.7660    9.0980    7.4680 C   0  0  0  0  0  0  0  0  0  0  0  0
   31.1860    8.0690    8.4070 C   0  0  0  0  0  0  0  0  0  0  0  0
   31.0827   10.6910    7.7214 C   0  0  0  0  0  0  0  0  0  0  0  0
   29.4280   11.6110    9.1450 O   0  0  0  0  0  0  0  0  0  0  0  0
   28.8670   12.8920    9.4310 C   0  0  0  0  0  0  0  0  0  0  0  0
   29.9260   13.8300    9.9860 C   0  0  0  0  0  0  0  0  0  0  0  0
   31.1030   13.5010    9.9720 O   0  0  0  0  0  0  0  0  0  0  0  0
   29.5320   15.0110   10.4940 N   0  0  0  0  0  0  0  0  0  0  0  0
   30.5000   15.9370   11.0760 C   0  0  0  0  0  0  0  0  0  0  0  0
   28.1410   15.4480   10.5470 C   0  0  0  0  0  0  0  0  0  0  0  0
   33.2630    9.6380    5.6520 C   0  0  0  0  0  0  0  0  0  0  0  0
   32.8210   10.9050    5.6820 C   0  0  0  0  0  0  0  0  0  0  0  0
   33.3300   11.7430    4.6780 N   0  0  0  0  0  0  0  0  0  0  0  0
   33.5900   13.0680    4.7540 C   0  0  0  0  0  0  0  0  0  0  0  0
   33.4420   13.7460    5.7670 O   0  0  0  0  0  0  0  0  0  0  0  0
   34.1200   13.7080    3.4770 C   0  0  0  0  0  0  0  0  0  0  0  0
   33.0230   14.1560    2.5380 C   0  0  0  0  0  0  0  0  0  0  0  0
   33.7650   14.2490    1.2210 C   0  0  0  0  0  0  0  0  0  0  0  0
   34.7960   13.1450    1.3220 C   0  0  0  0  0  0  0  0  0  0  0  0
   34.9020   12.7780    2.7050 O   0  0  0  0  0  0  0  0  0  0  0  0
   30.6741   12.9127    7.4849 H   0  0  0  0  0  0  0  0  0  0  0  0
   32.2128   13.4524    6.8060 H   0  0  0  0  0  0  0  0  0  0  0  0
   30.8507   13.0162    5.7242 H   0  0  0  0  0  0  0  0  0  0  0  0
   30.6017   10.7226    8.2243 H   0  0  0  0  0  0  0  0  0  0  0  0
   31.4116    7.0521    8.0719 H   0  0  0  0  0  0  0  0  0  0  0  0
   31.9816    7.4557    8.8371 H   0  0  0  0  0  0  0  0  0  0  0  0
   31.6071    8.1951    9.4095 H   0  0  0  0  0  0  0  0  0  0  0  0
   28.5519   13.3012    8.4819 H   0  0  0  0  0  0  0  0  0  0  0  0
   28.0136   12.7891   10.0717 H   0  0  0  0  0  0  0  0  0  0  0  0
   31.0949   16.3592   10.2652 H   0  0  0  0  0  0  0  0  0  0  0  0
   31.5287   15.6415   10.8642 H   0  0  0  0  0  0  0  0  0  0  0  0
   31.1439   15.3864   11.7659 H   0  0  0  0  0  0  0  0  0  0  0  0
   27.9000   15.7063   11.5824 H   0  0  0  0  0  0  0  0  0  0  0  0
   28.0168   16.3252    9.9090 H   0  0  0  0  0  0  0  0  0  0  0  0
   28.0574   16.4653   10.9306 H   0  0  0  0  0  0  0  0  0  0  0  0
   32.8086    8.8819    6.2963 H   0  0  0  0  0  0  0  0  0  0  0  0
   33.5912   11.3156    3.7976 H   0  0  0  0  0  0  0  0  0  0  0  0
   33.1337   12.2383    3.0457 H   0  0  0  0  0  0  0  0  0  0  0  0
   32.2589   13.3770    2.4624 H   0  0  0  0  0  0  0  0  0  0  0  0
   32.5326   15.0927    2.8079 H   0  0  0  0  0  0  0  0  0  0  0  0
   34.2637   15.2257    1.1467 H   0  0  0  0  0  0  0  0  0  0  0  0
   33.1123   14.1384    0.3449 H   0  0  0  0  0  0  0  0  0  0  0  0
   35.7801   13.4557    0.9446 H   0  0  0  0  0  0  0  0  0  0  0  0
   34.4784   12.2558    0.7611 H   0  0  0  0  0  0  0  0  0  0  0  0
  1  2  1  0
  2  3  4  0
  3  4  4  0
  4  5  1  0
  4  6  4  0
  6  7  1  0
  7  8  1  0
  8  9  1  0
  9 10  2  0
  9 11  1  0
 11 12  1  0
 11 13  1  0
  6 14  4  0
 14 15  4  0
 15 16  1  0
 16 17  1  0
 17 18  2  0
 17 19  1  0
 19 20  1  0
 20 21  1  0
 21 22  1  0
 22 23  1  0
 15  2  4  0
 23 19  1  0
  1 24  1  0
  1 25  1  0
  1 26  1  0
  3 27  1  0
  5 28  1  0
  5 29  1  0
  5 30  1  0
  8 31  1  0
  8 32  1  0
 12 33  1  0
 12 34  1  0
 12 35  1  0
 13 36  1  0
 13 37  1  0
 13 38  1  0
 14 39  1  0
 16 40  1  0
 19 41  1  0
 20 42  1  0
 20 43  1  0
 21 44  1  0
 21 45  1  0
 22 46  1  0
 22 47  1  0
M  END
$$$$
LIG
     RDKit          3D

 47 48  0  0  0  0  0  0  0  0999 V2000
   31.3784   12.7625    6.6609 C   0  0  0  0  0  0  0  0  0  0  0  0
   31.8610   11.3420    6.6030 C   0  0  0  0  0  0  0  0  0  0  0  0
   31.3460   10.4150    7.4890 C   0  0  0  0  0  0  0  0  0  0  0  0
   31.7660    9.0980    7.4680 C   0  0  0  0  0  0  0  0  0  0  0  0
   31.1860    8.0690    8.4070 C   0  0  0  0  0  0  0  0  0  0  0  0
   31.0540   10.6809    7.7010 C   0  0  0  0  0  0  0  0  0  0  0  0
   29.4280   11.6110    9.1450 O   0  0  0  0  0  0  0  0  0  0  0  0
   28.8670   12.8920    9.4310 C   0  0  0  0  0  0  0  0  0  0  0  0
   29.9260   13.8300    9.9860 C   0  0  0  0  0  0  0  0  0  0  0  0
   31.1030   13.5010    9.9720 O   0  0  0  0  0  0  0  0  0  0  0  0
   29.5320   15.0110   10.4940 N   0  0  0  0  0  0  0  0  0  0  0  0
   28.1410   15.4480   10.5470 C   0  0  0  0  0  0  0  0  0  0  0  0
   30.5000   15.9370   11.0760 C   0  0  0  0  0  0  0  0  0  0  0  0
   33.2630    9.6380    5.6520 C   0  0  0  0  0  0  0  0  0  0  0  0
   32.8210   10.9050    5.6820 C   0  0  0  0  0  0  0  0  0  0  0  0
   33.3300   11.7430    4.6780 N   0  0  0  0  0  0  0  0  0  0  0  0
   33.5900   13.0680    4.7540 C   0  0  0  0  0  0  0  0  0  0  0  0
   33.4420   13.7460    5.7670 O   0  0  0  0  0  0  0  0  0  0  0  0
   34.1200   13.7080    3.4770 C   0  0  0  0  0  0  0  0  0  0  0  0
   33.0230   14.1560    2.5380 C   0  0  0  0  0  0  0  0  0  0  0  0
   33.7650   14.2490    1.2210 C   0  0  0  0  0  0  0  0  0  0  0  0
   34.7960   13.1450    1.3220 C   0  0  0  0  0  0  0  0  0  0  0  0
   34.9020   12.7780    2.7050 O   0  0  0  0  0  0  0  0  0  0  0  0
   32.2098   13.4384    6.8847 H   0  0  0  0  0  0  0  0  0  0  0  0
   30.6255   12.8992    7.4442 H   0  0  0  0  0  0  0  0  0  0  0  0
   30.9167   13.0490    5.7106 H   0  0  0  0  0  0  0  0  0  0  0  0
   30.5918   10.7207    8.2204 H   0  0  0  0  0  0  0  0  0  0  0  0
   30.9185    8.5354    9.3602 H   0  0  0  0  0  0  0  0  0  0  0  0
   30.2982    7.6109    7.9609 H   0  0  0  0  0  0  0  0  0  0  0  0
   31.9049    7.2713    8.6195 H   0  0  0  0  0  0  0  0  0  0  0  0
   28.4832   13.3270    8.5044 H   0  0  0  0  0  0  0  0  0  0  0  0
   28.0877   12.7822   10.1901 H   0  0  0  0  0  0  0  0  0  0  0  0
   27.7599   15.2646   11.5550 H   0  0  0  0  0  0  0  0  0  0  0  0
   27.5054   14.5948   10.7975 H   0  0  0  0  0  0  0  0  0  0  0  0
   27.9852   16.2244   11.2961 H   0  0  0  0  0  0  0  0  0  0  0  0
   30.5315   16.8470   10.4716 H   0  0  0  0  0  0  0  0  0  0  0  0
   30.0340   16.8818   11.3633 H   0  0  0  0  0  0  0  0  0  0  0  0
   30.1788   16.1785   12.0928 H   0  0  0  0  0  0  0  0  0  0  0  0
   32.5572    8.8039    5.5714 H   0  0  0  0  0  0  0  0  0  0  0  0
   33.5908   11.3155    3.7957 H   0  0  0  0  0  0  0  0  0  0  0  0
   33.1606   12.2279    3.0322 H   0  0  0  0  0  0  0  0  0  0  0  0
   32.1821   13.4621    2.5041 H   0  0  0  0  0  0  0  0  0  0  0  0
   32.6386   15.1432    2.8127 H   0  0  0  0  0  0  0  0  0  0  0  0
   33.0695   14.0409    0.3930 H   0  0  0  0  0  0  0  0  0  0  0  0
   34.2114   15.2361    1.0415 H   0  0  0  0  0  0  0  0  0  0  0  0
   34.5305   12.2620    0.7262 H   0  0  0  0  0  0  0  0  0  0  0  0
   35.7852   13.4926    0.9907 H   0  0  0  0  0  0  0  0  0  0  0  0
  1  2  1  0
  2  3  4  0
  3  4  4  0
  4  5  1  0
  4  6  4  0
  6  7  1  0
  7  8  1  0
  8  9  1  0
  9 10  2  0
  9 11  1  0
 11 12  1  0
 11 13  1  0
  6 14  4  0
 14 15  4  0
 15 16  1  0
 16 17  1  0
 17 18  2  0
 17 19  1  0
 19 20  1  0
 20 21  1  0
 21 22  1  0
 22 23  1  0
 15  2  4  0
 23 19  1  0
  1 24  1  0
  1 25  1  0
  1 26  1  0
  3 27  1  0
  5 28  1  0
  5 29  1  0
  5 30  1  0
  8 31  1  0
  8 32  1  0
 12 33  1  0
 12 34  1  0
 12 35  1  0
 13 36  1  0
 13 37  1  0
 13 38  1  0
 14 39  1  0
 16 40  1  0
 19 41  1  0
 20 42  1  0
 20 43  1  0
 21 44  1  0
 21 45  1  0
 22 46  1  0
 22 47  1  0
M  END
$$$$
