LIG
     RDKit          3D

 44 46  0  0  0  0  0  0  0  0999 V2000
   32.8630    8.5672    6.4718 C   0  0  0  0  0  0  0  0  0  0  0  0
   32.2848    9.8755    6.7857 C   0  0  0  0  0  0  0  0  0  0  0  0
   31.3715   10.0150    7.8011 C   0  0  0  0  0  0  0  0  0  0  0  0
   30.9176   11.2066    8.1902 N   0  0  0  0  0  0  0  0  0  0  0  0
   31.3767   12.2830    7.5428 C   0  0  0  0  0  0  0  0  0  0  0  0
   30.9581   13.5323    7.8748 O   0  0  0  0  0  0  0  0  0  0  0  0
   30.1442   13.5073    9.0332 C   0  0  0  0  0  0  0  0  0  0  0  0
   28.7109   13.1014    8.6991 C   0  0  0  0  0  0  0  0  0  0  0  0
   28.2055   14.3112    7.9775 C   0  0  0  0  0  0  0  0  0  0  0  0
   28.8702   15.3557    8.6870 N   0  0  0  0  0  0  0  0  0  0  0  0
   28.5462   16.6874    8.4150 C   0  0  0  0  0  0  0  0  0  0  0  0
   30.0200   14.9582    9.3274 C   0  0  0  0  0  0  0  0  0  0  0  0
   30.8495   15.6596    9.8887 O   0  0  0  0  0  0  0  0  0  0  0  0
   32.2264   12.2416    6.4920 C   0  0  0  0  0  0  0  0  0  0  0  0
   32.6840   11.0071    6.1031 C   0  0  0  0  0  0  0  0  0  0  0  0
   33.4780   10.8924    4.9610 N   0  0  0  0  0  0  0  0  0  0  0  0
   34.2403   11.9531    4.4884 C   0  0  0  0  0  0  0  0  0  0  0  0
   34.6320   12.8744    5.2019 O   0  0  0  0  0  0  0  0  0  0  0  0
   34.4863   11.9572    2.9579 C   0  0  0  0  0  0  0  0  0  0  0  0
   33.3079   12.5951    2.2349 C   0  0  0  0  0  0  0  0  0  0  0  0
   33.5965   14.0709    2.3817 C   0  0  0  0  0  0  0  0  0  0  0  0
   35.1132   14.1219    2.4204 C   0  0  0  0  0  0  0  0  0  0  0  0
   35.5920   12.7740    2.5779 O   0  0  0  0  0  0  0  0  0  0  0  0
   32.4433    7.8001    7.1194 H   0  0  0  0  0  0  0  0  0  0  0  0
   32.6478    8.3772    5.4393 H   0  0  0  0  0  0  0  0  0  0  0  0
   33.9513    8.5732    6.5371 H   0  0  0  0  0  0  0  0  0  0  0  0
   30.9918    9.1664    8.3656 H   0  0  0  0  0  0  0  0  0  0  0  0
   30.6386   13.0591    9.8811 H   0  0  0  0  0  0  0  0  0  0  0  0
   28.6116   12.2164    8.0699 H   0  0  0  0  0  0  0  0  0  0  0  0
   28.1404   12.9707    9.6214 H   0  0  0  0  0  0  0  0  0  0  0  0
   28.5217   14.3311    6.9283 H   0  0  0  0  0  0  0  0  0  0  0  0
   27.1287   14.4421    8.0324 H   0  0  0  0  0  0  0  0  0  0  0  0
   29.2763   17.3848    8.7861 H   0  0  0  0  0  0  0  0  0  0  0  0
   28.5128   16.8034    7.3376 H   0  0  0  0  0  0  0  0  0  0  0  0
   27.6089   16.8477    8.9349 H   0  0  0  0  0  0  0  0  0  0  0  0
   32.4971   13.1676    6.0028 H   0  0  0  0  0  0  0  0  0  0  0  0
   33.6972    9.9819    4.5830 H   0  0  0  0  0  0  0  0  0  0  0  0
   34.6681   10.9303    2.6254 H   0  0  0  0  0  0  0  0  0  0  0  0
   32.3323   12.3185    2.6398 H   0  0  0  0  0  0  0  0  0  0  0  0
   33.3340   12.3242    1.1727 H   0  0  0  0  0  0  0  0  0  0  0  0
   33.1758   14.6739    1.5718 H   0  0  0  0  0  0  0  0  0  0  0  0
   33.1836   14.4555    3.3217 H   0  0  0  0  0  0  0  0  0  0  0  0
   35.5254   14.5162    1.4864 H   0  0  0  0  0  0  0  0  0  0  0  0
   35.4823   14.7384    3.2460 H   0  0  0  0  0  0  0  0  0  0  0  0
  1  2  1  0
  2  3  2  0
  3  4  1  0
  4  5  2  0
  5  6  1  0
  6  7  1  0
  7  8  1  0
  8  9  1  0
  9 10  1  0
 10 11  1  0
 10 12  1  0
 12 13  2  0
  5 14  1  0
 14 15  2  0
 15 16  1  0
 16 17  1  0
 17 18  2  0
 17 19  1  0
 19 20  1  0
 20 21  1  0
 21 22  1  0
 22 23  1  0
 15  2  1  0
 23 19  1  0
 12  7  1  0
  1 24  1  0
  1 25  1  0
  1 26  1  0
  3 27  1  0
  7 28  1  0
  8 29  1  0
  8 30  1  0
  9 31  1  0
  9 32  1  0
 11 33  1  0
 11 34  1  0
 11 35  1  0
 14 36  1  0
 16 37  1  0
 19 38  1  0
 20 39  1  0
 20 40  1  0
 21 41  1  0
 21 42  1  0
 22 43  1  0
 22 44  1  0
M  END
