LIG
     RDKit          3D

 31 31  0  0  0  0  0  0  0  0999 V2000
   34.3262    8.7668    5.1875 C   0  0  0  0  0  0  0  0  0  0  0  0
   33.3002    9.5539    5.9354 C   0  0  0  0  0  0  0  0  0  0  0  0
   33.3598   10.9356    5.8509 C   0  0  0  0  0  0  0  0  0  0  0  0
   32.5340   11.7218    6.6451 C   0  0  0  0  0  0  0  0  0  0  0  0
   32.9199   13.0804    6.7361 N   0  0  0  0  0  0  0  0  0  0  0  0
   33.7618   13.4116    7.8054 C   0  0  0  0  0  0  0  0  0  0  0  0
   33.7114   12.9118    8.9286 O   0  0  0  0  0  0  0  0  0  0  0  0
   34.8072   14.4717    7.4297 C   0  0  0  0  0  0  0  0  0  0  0  0
   34.7089   14.8780    6.0665 O   0  0  0  0  0  0  0  0  0  0  0  0
   31.5328   11.1289    7.4346 C   0  0  0  0  0  0  0  0  0  0  0  0
   30.5315   11.8592    8.1004 N   0  0  0  0  0  0  0  0  0  0  0  0
   29.7811   12.7928    7.4050 C   0  0  0  0  0  0  0  0  0  0  0  0
   29.9543   13.1204    6.2324 O   0  0  0  0  0  0  0  0  0  0  0  0
   28.6155   13.3175    8.1904 C   0  0  0  0  0  0  0  0  0  0  0  0
   28.5747   14.7666    8.1303 C   0  0  0  0  0  0  0  0  0  0  0  0
   28.5016   15.9212    8.1597 N   0  0  0  0  0  0  0  0  0  0  0  0
   31.4679    9.7430    7.5324 C   0  0  0  0  0  0  0  0  0  0  0  0
   32.3516    8.9681    6.7892 C   0  0  0  0  0  0  0  0  0  0  0  0
   33.8856    8.1987    4.3700 H   0  0  0  0  0  0  0  0  0  0  0  0
   34.8894    8.1263    5.8638 H   0  0  0  0  0  0  0  0  0  0  0  0
   35.0689    9.4269    4.7227 H   0  0  0  0  0  0  0  0  0  0  0  0
   34.1405   11.4042    5.2546 H   0  0  0  0  0  0  0  0  0  0  0  0
   33.3513   13.4531    5.8881 H   0  0  0  0  0  0  0  0  0  0  0  0
   35.8053   14.0590    7.5969 H   0  0  0  0  0  0  0  0  0  0  0  0
   34.6442   15.3312    8.0789 H   0  0  0  0  0  0  0  0  0  0  0  0
   35.0065   15.8155    6.0199 H   0  0  0  0  0  0  0  0  0  0  0  0
   30.0574   11.3794    8.8630 H   0  0  0  0  0  0  0  0  0  0  0  0
   27.7087   12.8845    7.7569 H   0  0  0  0  0  0  0  0  0  0  0  0
   28.6610   13.0039    9.2337 H   0  0  0  0  0  0  0  0  0  0  0  0
   30.7311    9.2433    8.1561 H   0  0  0  0  0  0  0  0  0  0  0  0
   32.3125    7.8954    6.9203 H   0  0  0  0  0  0  0  0  0  0  0  0
  1  2  1  0
  2  3  2  0
  3  4  1  0
  4  5  1  0
  5  6  1  0
  6  7  2  0
  6  8  1  0
  8  9  1  0
  4 10  2  0
 10 11  1  0
 11 12  1  0
 12 13  2  0
 12 14  1  0
 14 15  1  0
 15 16  3  0
 10 17  1  0
 17 18  2  0
 18  2  1  0
  1 19  1  0
  1 20  1  0
  1 21  1  0
  3 22  1  0
  5 23  1  0
  8 24  1  0
  8 25  1  0
  9 26  1  0
 11 27  1  0
 14 28  1  0
 14 29  1  0
 17 30  1  0
 18 31  1  0
M  END
