LIG
     RDKit          3D

 45 46  0  0  0  0  0  0  0  0999 V2000
   30.5000   15.9370   11.0760 C   0  0  0  0  0  0  0  0  0  0  0  0
   29.5320   15.0110   10.4940 N   0  0  0  0  0  0  0  0  0  0  0  0
   28.1410   15.4480   10.5470 C   0  0  0  0  0  0  0  0  0  0  0  0
   29.9260   13.8300    9.9860 C   0  0  0  0  0  0  0  0  0  0  0  0
   31.1030   13.5010    9.9720 O   0  0  0  0  0  0  0  0  0  0  0  0
   28.8670   12.8920    9.4310 C   0  0  0  0  0  0  0  0  0  0  0  0
   29.4280   11.6110    9.1450 O   0  0  0  0  0  0  0  0  0  0  0  0
   31.1650   10.7950    9.1290 C   0  0  0  0  0  0  0  0  0  0  0  0
   31.8380   11.8440    8.5230 C   0  0  0  0  0  0  0  0  0  0  0  0
   32.8900   11.5720    7.6690 C   0  0  0  0  0  0  0  0  0  0  0  0
   33.3940   12.4720    6.7660 O   0  0  0  0  0  0  0  0  0  0  0  0
   32.5070   13.2300    6.0470 C   0  0  0  0  0  0  0  0  0  0  0  0
   32.8430   14.5690    6.5820 C   0  0  0  0  0  0  0  0  0  0  0  0
   32.2450   15.0040    7.5510 O   0  0  0  0  0  0  0  0  0  0  0  0
   33.9260   15.1770    6.0590 N   0  0  0  0  0  0  0  0  0  0  0  0
   34.7260   15.9040    7.0650 C   0  0  0  0  0  0  0  0  0  0  0  0
   36.2000   15.5640    6.9400 C   0  0  0  0  0  0  0  0  0  0  0  0
   36.6530   15.7410    5.6230 O   0  0  0  0  0  0  0  0  0  0  0  0
   35.9790   14.7950    4.8070 C   0  0  0  0  0  0  0  0  0  0  0  0
   34.5050   15.1130    4.7140 C   0  0  0  0  0  0  0  0  0  0  0  0
   33.3470   10.2740    7.4930 C   0  0  0  0  0  0  0  0  0  0  0  0
   32.6580    9.2460    8.1260 C   0  0  0  0  0  0  0  0  0  0  0  0
   31.5630    9.4800    8.9430 C   0  0  0  0  0  0  0  0  0  0  0  0
   30.8480    8.3410    9.6370 F   0  0  0  0  0  0  0  0  0  0  0  0
   31.4950   15.7147   10.6815 H   0  0  0  0  0  0  0  0  0  0  0  0
   31.2465   15.3594   11.6269 H   0  0  0  0  0  0  0  0  0  0  0  0
   30.9905   16.5350   10.3075 H   0  0  0  0  0  0  0  0  0  0  0  0
   27.6963   15.3450    9.5539 H   0  0  0  0  0  0  0  0  0  0  0  0
   27.5031   14.6065   10.2640 H   0  0  0  0  0  0  0  0  0  0  0  0
   27.5568   14.8566   11.2553 H   0  0  0  0  0  0  0  0  0  0  0  0
   28.5143   13.3058    8.5021 H   0  0  0  0  0  0  0  0  0  0  0  0
   28.0308   12.8134   10.0978 H   0  0  0  0  0  0  0  0  0  0  0  0
   31.5725   12.8789    8.6976 H   0  0  0  0  0  0  0  0  0  0  0  0
   31.5042   12.9883    6.3067 H   0  0  0  0  0  0  0  0  0  0  0  0
   32.7444   13.2185    5.0092 H   0  0  0  0  0  0  0  0  0  0  0  0
   34.5666   16.9834    6.9643 H   0  0  0  0  0  0  0  0  0  0  0  0
   34.3378   15.5935    8.0436 H   0  0  0  0  0  0  0  0  0  0  0  0
   36.7892   16.2092    7.5906 H   0  0  0  0  0  0  0  0  0  0  0  0
   36.3765   14.5308    7.2298 H   0  0  0  0  0  0  0  0  0  0  0  0
   36.1371   13.8054    5.2367 H   0  0  0  0  0  0  0  0  0  0  0  0
   36.4402   14.8158    3.8212 H   0  0  0  0  0  0  0  0  0  0  0  0
   34.3491   16.0970    4.2651 H   0  0  0  0  0  0  0  0  0  0  0  0
   33.9820   14.3643    4.1199 H   0  0  0  0  0  0  0  0  0  0  0  0
   34.2072   10.0296    6.8964 H   0  0  0  0  0  0  0  0  0  0  0  0
   32.9868    8.2007    7.9822 H   0  0  0  0  0  0  0  0  0  0  0  0
  1  2  1  0
  2  3  1  0
  2  4  1  0
  4  5  2  0
  4  6  1  0
  6  7  1  0
  7  8  1  0
  8  9  4  0
  9 10  4  0
 10 11  1  0
 11 12  1  0
 12 13  1  0
 13 14  2  0
 13 15  1  0
 15 16  1  0
 16 17  1  0
 17 18  1  0
 18 19  1  0
 19 20  1  0
 10 21  4  0
 21 22  4  0
 22 23  4  0
 23 24  1  0
 23  8  4  0
 20 15  1  0
  1 25  1  0
  1 26  1  0
  1 27  1  0
  3 28  1  0
  3 29  1  0
  3 30  1  0
  6 31  1  0
  6 32  1  0
  9 33  1  0
 12 34  1  0
 12 35  1  0
 16 36  1  0
 16 37  1  0
 17 38  1  0
 17 39  1  0
 19 40  1  0
 19 41  1  0
 20 42  1  0
 20 43  1  0
 21 44  1  0
 22 45  1  0
M  END
