LIG
     RDKit          3D

 35 36  0  0  0  0  0  0  0  0999 V2000
   29.1994   15.0860   11.8141 C   0  0  0  0  0  0  0  0  0  0  0  0
   29.4015   15.0220   10.4043 N   0  0  0  0  0  0  0  0  0  0  0  0
   28.4527   14.3950    9.5278 C   0  0  0  0  0  0  0  0  0  0  0  0
   29.2490   14.2259    8.2573 C   0  0  0  0  0  0  0  0  0  0  0  0
   30.6498   13.9038    8.8070 C   0  0  0  0  0  0  0  0  0  0  0  0
   31.6896   14.0726    7.8823 O   0  0  0  0  0  0  0  0  0  0  0  0
   32.9965   13.7595    8.3395 C   0  0  0  0  0  0  0  0  0  0  0  0
   33.9395   13.4420    7.1939 C   0  0  0  0  0  0  0  0  0  0  0  0
   35.1333   13.7435    7.2478 O   0  0  0  0  0  0  0  0  0  0  0  0
   33.4635   12.7705    6.0808 N   0  0  0  0  0  0  0  0  0  0  0  0
   32.8640   11.4970    6.2636 C   0  0  0  0  0  0  0  0  0  0  0  0
   33.6156   10.3963    5.8949 C   0  0  0  0  0  0  0  0  0  0  0  0
   33.1857    9.1281    6.2547 C   0  0  0  0  0  0  0  0  0  0  0  0
   32.0408    8.9439    7.0280 C   0  0  0  0  0  0  0  0  0  0  0  0
   31.2337   10.0246    7.3103 C   0  0  0  0  0  0  0  0  0  0  0  0
   31.6026   11.2683    6.8151 C   0  0  0  0  0  0  0  0  0  0  0  0
   30.6297   12.2083    6.6960 O   0  0  0  0  0  0  0  0  0  0  0  0
   30.6991   14.8438    9.9758 C   0  0  0  0  0  0  0  0  0  0  0  0
   31.7045   15.3303   10.4617 O   0  0  0  0  0  0  0  0  0  0  0  0
   28.1450   15.0679   12.0422 H   0  0  0  0  0  0  0  0  0  0  0  0
   29.6850   15.9788   12.2049 H   0  0  0  0  0  0  0  0  0  0  0  0
   29.6615   14.2140   12.2803 H   0  0  0  0  0  0  0  0  0  0  0  0
   27.5808   15.0398    9.3994 H   0  0  0  0  0  0  0  0  0  0  0  0
   28.1598   13.4300    9.9452 H   0  0  0  0  0  0  0  0  0  0  0  0
   28.8077   13.4629    7.6167 H   0  0  0  0  0  0  0  0  0  0  0  0
   29.2598   15.1577    7.6810 H   0  0  0  0  0  0  0  0  0  0  0  0
   30.6602   12.8802    9.1889 H   0  0  0  0  0  0  0  0  0  0  0  0
   32.9819   12.9118    9.0203 H   0  0  0  0  0  0  0  0  0  0  0  0
   33.4081   14.6252    8.8617 H   0  0  0  0  0  0  0  0  0  0  0  0
   34.2643   12.7299    5.4591 H   0  0  0  0  0  0  0  0  0  0  0  0
   34.5766   10.5076    5.4002 H   0  0  0  0  0  0  0  0  0  0  0  0
   33.8246    8.2949    5.9990 H   0  0  0  0  0  0  0  0  0  0  0  0
   31.7563    7.9544    7.3752 H   0  0  0  0  0  0  0  0  0  0  0  0
   30.2965    9.8602    7.8346 H   0  0  0  0  0  0  0  0  0  0  0  0
   29.7980   11.8192    7.0105 H   0  0  0  0  0  0  0  0  0  0  0  0
  1  2  1  0
  2  3  1  0
  3  4  1  0
  4  5  1  0
  5  6  1  0
  6  7  1  0
  7  8  1  0
  8  9  2  0
  8 10  1  0
 10 11  1  0
 11 12  2  0
 12 13  1  0
 13 14  2  0
 14 15  1  0
 15 16  2  0
 16 17  1  0
  5 18  1  0
 18 19  2  0
 18  2  1  0
 16 11  1  0
  1 20  1  0
  1 21  1  0
  1 22  1  0
  3 23  1  0
  3 24  1  0
  4 25  1  0
  4 26  1  0
  5 27  1  0
  7 28  1  0
  7 29  1  0
 10 30  1  0
 12 31  1  0
 13 32  1  0
 14 33  1  0
 15 34  1  0
 17 35  1  0
M  END
