LIG
     RDKit          3D

 37 38  0  0  0  0  0  0  0  0999 V2000
   35.2704    7.8375    2.0996 C   0  0  0  0  0  0  0  0  0  0  0  0
   34.1301    8.7264    1.6878 C   0  0  0  0  0  0  0  0  0  0  0  0
   33.4252    8.4570    0.7159 O   0  0  0  0  0  0  0  0  0  0  0  0
   33.8015    9.8234    2.4166 N   0  0  0  0  0  0  0  0  0  0  0  0
   34.4851   10.4283    3.4628 C   0  0  0  0  0  0  0  0  0  0  0  0
   35.8700   10.5034    3.5217 C   0  0  0  0  0  0  0  0  0  0  0  0
   36.5419   11.1621    4.4785 N   0  0  0  0  0  0  0  0  0  0  0  0
   35.7814   11.7478    5.4288 C   0  0  0  0  0  0  0  0  0  0  0  0
   34.3939   11.7272    5.4549 C   0  0  0  0  0  0  0  0  0  0  0  0
   33.6515   12.2660    6.4564 O   0  0  0  0  0  0  0  0  0  0  0  0
   33.5998   13.6852    6.4054 C   0  0  0  0  0  0  0  0  0  0  0  0
   34.9223   14.4490    6.2406 C   0  0  0  0  0  0  0  0  0  0  0  0
   35.5970   14.6930    7.2426 O   0  0  0  0  0  0  0  0  0  0  0  0
   35.3968   14.6585    4.9465 N   0  0  0  0  0  0  0  0  0  0  0  0
   36.7694   15.1381    4.7942 C   0  0  0  0  0  0  0  0  0  0  0  0
   37.3924   14.7169    3.4644 C   0  0  0  0  0  0  0  0  0  0  0  0
   36.5559   15.0722    2.3570 O   0  0  0  0  0  0  0  0  0  0  0  0
   35.2843   14.4271    2.4775 C   0  0  0  0  0  0  0  0  0  0  0  0
   34.5621   14.8491    3.7597 C   0  0  0  0  0  0  0  0  0  0  0  0
   33.7384   11.0614    4.4461 C   0  0  0  0  0  0  0  0  0  0  0  0
   35.0607    6.8186    1.7585 H   0  0  0  0  0  0  0  0  0  0  0  0
   35.3782    7.7942    3.1859 H   0  0  0  0  0  0  0  0  0  0  0  0
   36.1959    8.1736    1.6274 H   0  0  0  0  0  0  0  0  0  0  0  0
   32.9032   10.2067    2.1545 H   0  0  0  0  0  0  0  0  0  0  0  0
   36.5069   10.0904    2.7481 H   0  0  0  0  0  0  0  0  0  0  0  0
   36.3517   12.2593    6.1994 H   0  0  0  0  0  0  0  0  0  0  0  0
   33.1983   13.9816    7.3805 H   0  0  0  0  0  0  0  0  0  0  0  0
   32.8494   13.9992    5.6765 H   0  0  0  0  0  0  0  0  0  0  0  0
   36.7566   16.2266    4.8555 H   0  0  0  0  0  0  0  0  0  0  0  0
   37.3903   14.7478    5.6032 H   0  0  0  0  0  0  0  0  0  0  0  0
   38.3573   15.2162    3.3301 H   0  0  0  0  0  0  0  0  0  0  0  0
   37.5755   13.6369    3.4375 H   0  0  0  0  0  0  0  0  0  0  0  0
   34.6844   14.7066    1.6056 H   0  0  0  0  0  0  0  0  0  0  0  0
   35.4299   13.3424    2.4428 H   0  0  0  0  0  0  0  0  0  0  0  0
   33.6160   14.3134    3.8391 H   0  0  0  0  0  0  0  0  0  0  0  0
   34.3382   15.9182    3.7024 H   0  0  0  0  0  0  0  0  0  0  0  0
   32.6612   11.0110    4.4660 H   0  0  0  0  0  0  0  0  0  0  0  0
  1  2  1  0
  2  3  2  0
  2  4  1  0
  4  5  1  0
  5  6  2  0
  6  7  1  0
  7  8  2  0
  8  9  1  0
  9 10  1  0
 10 11  1  0
 11 12  1  0
 12 13  2  0
 12 14  1  0
 14 15  1  0
 15 16  1  0
 16 17  1  0
 17 18  1  0
 18 19  1  0
  9 20  2  0
 20  5  1  0
 19 14  1  0
  1 21  1  0
  1 22  1  0
  1 23  1  0
  4 24  1  0
  6 25  1  0
  8 26  1  0
 11 27  1  0
 11 28  1  0
 15 29  1  0
 15 30  1  0
 16 31  1  0
 16 32  1  0
 18 33  1  0
 18 34  1  0
 19 35  1  0
 19 36  1  0
 20 37  1  0
M  END
