LIG
     RDKit          3D

 45 47  0  0  0  0  0  0  0  0999 V2000
   30.7747    9.2929    8.4832 C   0  0  0  0  0  0  0  0  0  0  0  0
   31.6373   10.0491    7.5182 C   0  0  0  0  0  0  0  0  0  0  0  0
   32.3405    9.2981    6.5750 C   0  0  0  0  0  0  0  0  0  0  0  0
   33.1269    9.8979    5.5877 C   0  0  0  0  0  0  0  0  0  0  0  0
   33.2170   11.2759    5.5264 C   0  0  0  0  0  0  0  0  0  0  0  0
   33.7663   11.8933    4.4005 N   0  0  0  0  0  0  0  0  0  0  0  0
   33.5162   13.2112    4.0304 C   0  0  0  0  0  0  0  0  0  0  0  0
   33.0026   14.0945    4.7142 O   0  0  0  0  0  0  0  0  0  0  0  0
   33.7549   13.4000    2.5362 C   0  0  0  0  0  0  0  0  0  0  0  0
   33.9842   14.8422    2.1415 C   0  0  0  0  0  0  0  0  0  0  0  0
   34.7411   14.6744    0.8509 C   0  0  0  0  0  0  0  0  0  0  0  0
   35.6095   13.4710    1.1523 C   0  0  0  0  0  0  0  0  0  0  0  0
   34.8566   12.6299    2.0388 O   0  0  0  0  0  0  0  0  0  0  0  0
   32.6616   12.0118    6.5465 C   0  0  0  0  0  0  0  0  0  0  0  0
   31.8361   11.4274    7.4951 C   0  0  0  0  0  0  0  0  0  0  0  0
   31.3946   12.3329    8.4052 O   0  0  0  0  0  0  0  0  0  0  0  0
   30.0465   12.6901    8.2783 C   0  0  0  0  0  0  0  0  0  0  0  0
   29.5049   13.0132    6.8888 C   0  0  0  0  0  0  0  0  0  0  0  0
   28.2616   13.8240    7.1836 C   0  0  0  0  0  0  0  0  0  0  0  0
   28.5200   14.4100    8.4708 N   0  0  0  0  0  0  0  0  0  0  0  0
   27.8971   15.6093    8.8976 C   0  0  0  0  0  0  0  0  0  0  0  0
   29.7651   14.0221    8.9642 C   0  0  0  0  0  0  0  0  0  0  0  0
   30.4507   14.6686    9.7416 O   0  0  0  0  0  0  0  0  0  0  0  0
   29.8743    8.9311    7.9805 H   0  0  0  0  0  0  0  0  0  0  0  0
   31.3101    8.4328    8.8962 H   0  0  0  0  0  0  0  0  0  0  0  0
   30.4655    9.9198    9.3172 H   0  0  0  0  0  0  0  0  0  0  0  0
   32.2809    8.2148    6.6161 H   0  0  0  0  0  0  0  0  0  0  0  0
   33.6240    9.2668    4.8562 H   0  0  0  0  0  0  0  0  0  0  0  0
   34.2070   11.3143    3.6907 H   0  0  0  0  0  0  0  0  0  0  0  0
   32.8576   13.0213    2.0282 H   0  0  0  0  0  0  0  0  0  0  0  0
   33.0546   15.4080    2.0295 H   0  0  0  0  0  0  0  0  0  0  0  0
   34.6084   15.3609    2.8795 H   0  0  0  0  0  0  0  0  0  0  0  0
   35.3194   15.5559    0.5623 H   0  0  0  0  0  0  0  0  0  0  0  0
   34.0436   14.4390    0.0383 H   0  0  0  0  0  0  0  0  0  0  0  0
   35.8789   12.9106    0.2528 H   0  0  0  0  0  0  0  0  0  0  0  0
   36.5286   13.7648    1.6707 H   0  0  0  0  0  0  0  0  0  0  0  0
   32.8334   13.0803    6.6313 H   0  0  0  0  0  0  0  0  0  0  0  0
   29.4189   11.9272    8.7416 H   0  0  0  0  0  0  0  0  0  0  0  0
   30.2242   13.6083    6.3145 H   0  0  0  0  0  0  0  0  0  0  0  0
   29.2825   12.1227    6.2993 H   0  0  0  0  0  0  0  0  0  0  0  0
   27.3661   13.2020    7.2524 H   0  0  0  0  0  0  0  0  0  0  0  0
   28.1180   14.5991    6.4283 H   0  0  0  0  0  0  0  0  0  0  0  0
   27.9039   15.5764    9.9830 H   0  0  0  0  0  0  0  0  0  0  0  0
   28.4451   16.4665    8.5044 H   0  0  0  0  0  0  0  0  0  0  0  0
   26.8624   15.5951    8.5693 H   0  0  0  0  0  0  0  0  0  0  0  0
  1  2  1  0
  2  3  2  0
  3  4  1  0
  4  5  2  0
  5  6  1  0
  6  7  1  0
  7  8  2  0
  7  9  1  0
  9 10  1  0
 10 11  1  0
 11 12  1  0
 12 13  1  0
  5 14  1  0
 14 15  2  0
 15 16  1  0
 16 17  1  0
 17 18  1  0
 18 19  1  0
 19 20  1  0
 20 21  1  0
 20 22  1  0
 22 23  2  0
 15  2  1  0
 22 17  1  0
 13  9  1  0
  1 24  1  0
  1 25  1  0
  1 26  1  0
  3 27  1  0
  4 28  1  0
  6 29  1  0
  9 30  1  0
 10 31  1  0
 10 32  1  0
 11 33  1  0
 11 34  1  0
 12 35  1  0
 12 36  1  0
 14 37  1  0
 17 38  1  0
 18 39  1  0
 18 40  1  0
 19 41  1  0
 19 42  1  0
 21 43  1  0
 21 44  1  0
 21 45  1  0
M  END
