LIG
     RDKit          3D

 34 34  0  0  0  0  0  0  0  0999 V2000
   37.7508   12.0810    3.0629 C   0  0  0  0  0  0  0  0  0  0  0  0
   37.5998   13.2328    3.9351 N   0  0  0  0  0  0  0  0  0  0  0  0
   38.6832   14.2017    3.9077 C   0  0  0  0  0  0  0  0  0  0  0  0
   36.3341   13.5035    4.4452 C   0  0  0  0  0  0  0  0  0  0  0  0
   35.4232   12.6687    4.4096 O   0  0  0  0  0  0  0  0  0  0  0  0
   36.0832   14.8840    5.0654 C   0  0  0  0  0  0  0  0  0  0  0  0
   34.9844   14.8929    5.9627 O   0  0  0  0  0  0  0  0  0  0  0  0
   35.3018   14.3252    7.2257 C   0  0  0  0  0  0  0  0  0  0  0  0
   34.2141   13.3651    7.6566 C   0  0  0  0  0  0  0  0  0  0  0  0
   33.9091   13.2175    8.8429 O   0  0  0  0  0  0  0  0  0  0  0  0
   33.6740   12.6330    6.6020 N   0  0  0  0  0  0  0  0  0  0  0  0
   32.6265   11.7490    6.8546 C   0  0  0  0  0  0  0  0  0  0  0  0
   32.7484   10.4003    6.5373 C   0  0  0  0  0  0  0  0  0  0  0  0
   31.8104    9.5071    7.0556 C   0  0  0  0  0  0  0  0  0  0  0  0
   30.7127    9.9769    7.7841 C   0  0  0  0  0  0  0  0  0  0  0  0
   30.5401   11.3451    7.9418 C   0  0  0  0  0  0  0  0  0  0  0  0
   29.4383   11.8874    8.5214 O   0  0  0  0  0  0  0  0  0  0  0  0
   31.4995   12.2312    7.5092 C   0  0  0  0  0  0  0  0  0  0  0  0
   36.9477   11.3520    3.1996 H   0  0  0  0  0  0  0  0  0  0  0  0
   38.7044   11.5902    3.2796 H   0  0  0  0  0  0  0  0  0  0  0  0
   37.7417   12.4253    2.0243 H   0  0  0  0  0  0  0  0  0  0  0  0
   38.7977   14.6770    4.8831 H   0  0  0  0  0  0  0  0  0  0  0  0
   38.4582   14.9611    3.1535 H   0  0  0  0  0  0  0  0  0  0  0  0
   39.6262   13.7043    3.6625 H   0  0  0  0  0  0  0  0  0  0  0  0
   35.8348   15.5478    4.2309 H   0  0  0  0  0  0  0  0  0  0  0  0
   36.9612   15.2850    5.5613 H   0  0  0  0  0  0  0  0  0  0  0  0
   36.2516   13.7784    7.2209 H   0  0  0  0  0  0  0  0  0  0  0  0
   35.3581   15.1304    7.9590 H   0  0  0  0  0  0  0  0  0  0  0  0
   34.3387   12.4085    5.8586 H   0  0  0  0  0  0  0  0  0  0  0  0
   33.6157   10.0250    6.0023 H   0  0  0  0  0  0  0  0  0  0  0  0
   31.9394    8.4372    6.9139 H   0  0  0  0  0  0  0  0  0  0  0  0
   29.9787    9.2691    8.1612 H   0  0  0  0  0  0  0  0  0  0  0  0
   29.4027   11.5367    9.4381 H   0  0  0  0  0  0  0  0  0  0  0  0
   31.3810   13.2914    7.7085 H   0  0  0  0  0  0  0  0  0  0  0  0
  1  2  1  0
  2  3  1  0
  2  4  1  0
  4  5  2  0
  4  6  1  0
  6  7  1  0
  7  8  1  0
  8  9  1  0
  9 10  2  0
  9 11  1  0
 11 12  1  0
 12 13  2  0
 13 14  1  0
 14 15  2  0
 15 16  1  0
 16 17  1  0
 16 18  2  0
 18 12  1  0
  1 19  1  0
  1 20  1  0
  1 21  1  0
  3 22  1  0
  3 23  1  0
  3 24  1  0
  6 25  1  0
  6 26  1  0
  8 27  1  0
  8 28  1  0
 11 29  1  0
 13 30  1  0
 14 31  1  0
 15 32  1  0
 17 33  1  0
 18 34  1  0
M  END
