LIG
     RDKit          3D

 37 37  0  0  0  0  0  0  0  0999 V2000
   35.0177    8.6088    4.3304 C   0  0  0  0  0  0  0  0  0  0  0  0
   34.8121   10.0724    4.1932 C   0  0  0  0  0  0  0  0  0  0  0  0
   35.5693   10.7607    3.5009 O   0  0  0  0  0  0  0  0  0  0  0  0
   33.7948   10.7268    4.7916 N   0  0  0  0  0  0  0  0  0  0  0  0
   32.9095   10.4668    5.8683 C   0  0  0  0  0  0  0  0  0  0  0  0
   32.6171    9.2022    6.3366 C   0  0  0  0  0  0  0  0  0  0  0  0
   31.6887    9.0139    7.3571 C   0  0  0  0  0  0  0  0  0  0  0  0
   31.0143   10.0967    7.9001 C   0  0  0  0  0  0  0  0  0  0  0  0
   31.2809   11.3986    7.4667 C   0  0  0  0  0  0  0  0  0  0  0  0
   30.5261   12.3848    8.1465 N   0  0  0  0  0  0  0  0  0  0  0  0
   29.6239   13.2723    7.6226 C   0  0  0  0  0  0  0  0  0  0  0  0
   29.5432   13.4629    6.1413 C   0  0  0  0  0  0  0  0  0  0  0  0
   28.8466   13.8619    8.3795 O   0  0  0  0  0  0  0  0  0  0  0  0
   32.3163   11.5929    6.5165 C   0  0  0  0  0  0  0  0  0  0  0  0
   33.0591   12.8561    6.1805 C   0  0  0  0  0  0  0  0  0  0  0  0
   33.1104   14.0063    7.0144 N   0  0  0  0  0  0  0  0  0  0  0  0
   33.7143   13.8900    8.5341 S   0  0  0  0  0  6  0  0  0  0  0  0
   32.4749   14.7351    9.4276 C   0  0  0  0  0  0  0  0  0  0  0  0
   33.6685   12.5377    8.9914 O   0  0  0  0  0  0  0  0  0  0  0  0
   34.9186   14.6625    8.4723 O   0  0  0  0  0  0  0  0  0  0  0  0
   34.1682    8.0748    3.9036 H   0  0  0  0  0  0  0  0  0  0  0  0
   35.9088    8.3155    3.7660 H   0  0  0  0  0  0  0  0  0  0  0  0
   35.1851    8.3380    5.3712 H   0  0  0  0  0  0  0  0  0  0  0  0
   33.8546   11.6684    4.4306 H   0  0  0  0  0  0  0  0  0  0  0  0
   33.0877    8.3267    5.9275 H   0  0  0  0  0  0  0  0  0  0  0  0
   31.4644    8.0103    7.7129 H   0  0  0  0  0  0  0  0  0  0  0  0
   30.2668    9.8985    8.6658 H   0  0  0  0  0  0  0  0  0  0  0  0
   30.1943   12.1255    9.0797 H   0  0  0  0  0  0  0  0  0  0  0  0
   28.8564   14.2849    5.9179 H   0  0  0  0  0  0  0  0  0  0  0  0
   30.5094   13.7094    5.7086 H   0  0  0  0  0  0  0  0  0  0  0  0
   29.1510   12.5539    5.6917 H   0  0  0  0  0  0  0  0  0  0  0  0
   32.6914   13.2018    5.2048 H   0  0  0  0  0  0  0  0  0  0  0  0
   34.1299   12.6347    6.0575 H   0  0  0  0  0  0  0  0  0  0  0  0
   33.7577   14.6764    6.5686 H   0  0  0  0  0  0  0  0  0  0  0  0
   32.4297   14.3368   10.4408 H   0  0  0  0  0  0  0  0  0  0  0  0
   31.4984   14.5939    8.9770 H   0  0  0  0  0  0  0  0  0  0  0  0
   32.7257   15.7884    9.4642 H   0  0  0  0  0  0  0  0  0  0  0  0
  1  2  1  0
  2  3  2  0
  2  4  1  0
  4  5  1  0
  5  6  2  0
  6  7  1  0
  7  8  2  0
  8  9  1  0
  9 10  1  0
 10 11  1  0
 11 12  1  0
 11 13  2  0
  9 14  2  0
 14 15  1  0
 15 16  1  0
 16 17  1  0
 17 18  1  0
 17 19  2  0
 17 20  2  0
 14  5  1  0
  1 21  1  0
  1 22  1  0
  1 23  1  0
  4 24  1  0
  6 25  1  0
  7 26  1  0
  8 27  1  0
 10 28  1  0
 12 29  1  0
 12 30  1  0
 12 31  1  0
 15 32  1  0
 15 33  1  0
 16 34  1  0
 18 35  1  0
 18 36  1  0
 18 37  1  0
M  END
