LIG
     RDKit          3D

 35 36  0  0  0  0  0  0  0  0999 V2000
   34.1524    9.0435    5.3933 C   0  0  0  0  0  0  0  0  0  0  0  0
   33.0815    9.7579    6.0292 N   0  0  0  0  0  0  0  0  0  0  0  0
   32.2036    9.0608    6.7656 N   0  0  0  0  0  0  0  0  0  0  0  0
   31.4160    9.9944    7.2904 C   0  0  0  0  0  0  0  0  0  0  0  0
   31.7945   11.2928    6.8860 C   0  0  0  0  0  0  0  0  0  0  0  0
   31.2507   12.4852    7.3314 N   0  0  0  0  0  0  0  0  0  0  0  0
   29.8833   12.6163    7.4459 C   0  0  0  0  0  0  0  0  0  0  0  0
   29.0796   12.1334    6.6541 O   0  0  0  0  0  0  0  0  0  0  0  0
   29.4441   13.4500    8.6094 C   0  0  0  0  0  0  0  0  0  0  0  0
   28.8475   14.6934    8.1652 C   0  0  0  0  0  0  0  0  0  0  0  0
   28.3743   15.7141    7.8946 N   0  0  0  0  0  0  0  0  0  0  0  0
   32.8414   11.1129    5.9967 C   0  0  0  0  0  0  0  0  0  0  0  0
   33.5678   11.9379    5.1527 N   0  0  0  0  0  0  0  0  0  0  0  0
   33.3545   13.2820    4.9570 C   0  0  0  0  0  0  0  0  0  0  0  0
   32.5957   13.9887    5.6152 O   0  0  0  0  0  0  0  0  0  0  0  0
   34.1751   13.8252    3.7724 C   0  0  0  0  0  0  0  0  0  0  0  0
   33.2891   14.5466    2.7693 C   0  0  0  0  0  0  0  0  0  0  0  0
   34.0419   14.3571    1.4780 C   0  0  0  0  0  0  0  0  0  0  0  0
   34.5968   12.9614    1.6374 C   0  0  0  0  0  0  0  0  0  0  0  0
   34.8274   12.7624    3.0412 O   0  0  0  0  0  0  0  0  0  0  0  0
   33.7855    8.5982    4.4691 H   0  0  0  0  0  0  0  0  0  0  0  0
   34.5304    8.2916    6.0805 H   0  0  0  0  0  0  0  0  0  0  0  0
   34.9772    9.7206    5.1629 H   0  0  0  0  0  0  0  0  0  0  0  0
   30.6208    9.6889    7.9601 H   0  0  0  0  0  0  0  0  0  0  0  0
   31.7290   13.3067    6.9535 H   0  0  0  0  0  0  0  0  0  0  0  0
   30.2869   13.6453    9.2808 H   0  0  0  0  0  0  0  0  0  0  0  0
   28.7018   12.8732    9.1654 H   0  0  0  0  0  0  0  0  0  0  0  0
   34.2714   11.5400    4.5329 H   0  0  0  0  0  0  0  0  0  0  0  0
   34.9584   14.4818    4.1672 H   0  0  0  0  0  0  0  0  0  0  0  0
   33.1349   15.5991    3.0203 H   0  0  0  0  0  0  0  0  0  0  0  0
   32.3024   14.0715    2.7018 H   0  0  0  0  0  0  0  0  0  0  0  0
   34.8634   15.0810    1.4204 H   0  0  0  0  0  0  0  0  0  0  0  0
   33.4214   14.4721    0.5855 H   0  0  0  0  0  0  0  0  0  0  0  0
   35.5294   12.8120    1.0865 H   0  0  0  0  0  0  0  0  0  0  0  0
   33.8728   12.2072    1.3108 H   0  0  0  0  0  0  0  0  0  0  0  0
  1  2  1  0
  2  3  1  0
  3  4  2  0
  4  5  1  0
  5  6  1  0
  6  7  1  0
  7  8  2  0
  7  9  1  0
  9 10  1  0
 10 11  3  0
  5 12  2  0
 12 13  1  0
 13 14  1  0
 14 15  2  0
 14 16  1  0
 16 17  1  0
 17 18  1  0
 18 19  1  0
 19 20  1  0
 12  2  1  0
 20 16  1  0
  1 21  1  0
  1 22  1  0
  1 23  1  0
  4 24  1  0
  6 25  1  0
  9 26  1  0
  9 27  1  0
 13 28  1  0
 16 29  1  0
 17 30  1  0
 17 31  1  0
 18 32  1  0
 18 33  1  0
 19 34  1  0
 19 35  1  0
M  END
