LIG
     RDKit          3D

 45 46  0  0  0  0  0  0  0  0999 V2000
   30.8421   15.5360   11.2277 C   0  0  0  0  0  0  0  0  0  0  0  0
   29.8756   14.8348   10.3982 N   0  0  0  0  0  0  0  0  0  0  0  0
   28.5564   14.6563   10.9506 C   0  0  0  0  0  0  0  0  0  0  0  0
   30.3953   13.8773    9.5247 C   0  0  0  0  0  0  0  0  0  0  0  0
   31.6115   13.6967    9.4721 O   0  0  0  0  0  0  0  0  0  0  0  0
   29.4140   13.1135    8.6026 C   0  0  0  0  0  0  0  0  0  0  0  0
   29.5074   11.6978    8.5719 O   0  0  0  0  0  0  0  0  0  0  0  0
   30.5515   11.0701    7.9697 C   0  0  0  0  0  0  0  0  0  0  0  0
   31.3169   11.6786    6.9888 C   0  0  0  0  0  0  0  0  0  0  0  0
   32.3410   10.9958    6.3377 C   0  0  0  0  0  0  0  0  0  0  0  0
   33.1600   11.5293    5.3871 O   0  0  0  0  0  0  0  0  0  0  0  0
   32.9223   12.8653    4.9559 C   0  0  0  0  0  0  0  0  0  0  0  0
   33.4797   13.8493    5.9629 C   0  0  0  0  0  0  0  0  0  0  0  0
   33.0101   13.8888    7.1014 O   0  0  0  0  0  0  0  0  0  0  0  0
   34.5322   14.6614    5.6160 N   0  0  0  0  0  0  0  0  0  0  0  0
   35.4738   14.8885    6.7084 C   0  0  0  0  0  0  0  0  0  0  0  0
   36.5481   13.8049    6.5877 C   0  0  0  0  0  0  0  0  0  0  0  0
   37.2739   14.0018    5.3555 O   0  0  0  0  0  0  0  0  0  0  0  0
   36.3923   13.8098    4.2322 C   0  0  0  0  0  0  0  0  0  0  0  0
   35.1819   14.7490    4.3031 C   0  0  0  0  0  0  0  0  0  0  0  0
   32.5525    9.6524    6.6203 C   0  0  0  0  0  0  0  0  0  0  0  0
   31.7711    9.0170    7.5820 C   0  0  0  0  0  0  0  0  0  0  0  0
   30.8033    9.7302    8.2761 C   0  0  0  0  0  0  0  0  0  0  0  0
   30.1406    9.0926    9.2523 F   0  0  0  0  0  0  0  0  0  0  0  0
   31.7793   15.7081   10.6930 H   0  0  0  0  0  0  0  0  0  0  0  0
   30.4587   16.4993   11.5589 H   0  0  0  0  0  0  0  0  0  0  0  0
   31.0375   14.9267   12.1034 H   0  0  0  0  0  0  0  0  0  0  0  0
   28.5007   15.1278   11.9332 H   0  0  0  0  0  0  0  0  0  0  0  0
   27.8324   15.0950   10.2602 H   0  0  0  0  0  0  0  0  0  0  0  0
   28.3077   13.6048   11.0803 H   0  0  0  0  0  0  0  0  0  0  0  0
   29.4804   13.5489    7.5990 H   0  0  0  0  0  0  0  0  0  0  0  0
   28.3831   13.3257    8.8943 H   0  0  0  0  0  0  0  0  0  0  0  0
   31.1008   12.7007    6.7272 H   0  0  0  0  0  0  0  0  0  0  0  0
   31.8651   13.0790    4.7661 H   0  0  0  0  0  0  0  0  0  0  0  0
   33.4095   12.9465    3.9857 H   0  0  0  0  0  0  0  0  0  0  0  0
   34.9991   14.8512    7.6928 H   0  0  0  0  0  0  0  0  0  0  0  0
   35.9091   15.8726    6.5609 H   0  0  0  0  0  0  0  0  0  0  0  0
   37.2538   13.8180    7.4206 H   0  0  0  0  0  0  0  0  0  0  0  0
   36.1031   12.8082    6.5574 H   0  0  0  0  0  0  0  0  0  0  0  0
   36.0755   12.7604    4.2122 H   0  0  0  0  0  0  0  0  0  0  0  0
   36.9657   14.0023    3.3202 H   0  0  0  0  0  0  0  0  0  0  0  0
   34.4747   14.5639    3.4923 H   0  0  0  0  0  0  0  0  0  0  0  0
   35.5398   15.7738    4.1820 H   0  0  0  0  0  0  0  0  0  0  0  0
   33.3273    9.0941    6.0994 H   0  0  0  0  0  0  0  0  0  0  0  0
   31.9209    7.9715    7.8215 H   0  0  0  0  0  0  0  0  0  0  0  0
  1  2  1  0
  2  3  1  0
  2  4  1  0
  4  5  2  0
  4  6  1  0
  6  7  1  0
  7  8  1  0
  8  9  2  0
  9 10  1  0
 10 11  1  0
 11 12  1  0
 12 13  1  0
 13 14  2  0
 13 15  1  0
 15 16  1  0
 16 17  1  0
 17 18  1  0
 18 19  1  0
 19 20  1  0
 10 21  2  0
 21 22  1  0
 22 23  2  0
 23 24  1  0
 23  8  1  0
 20 15  1  0
  1 25  1  0
  1 26  1  0
  1 27  1  0
  3 28  1  0
  3 29  1  0
  3 30  1  0
  6 31  1  0
  6 32  1  0
  9 33  1  0
 12 34  1  0
 12 35  1  0
 16 36  1  0
 16 37  1  0
 17 38  1  0
 17 39  1  0
 19 40  1  0
 19 41  1  0
 20 42  1  0
 20 43  1  0
 21 44  1  0
 22 45  1  0
M  END
