LIG
     RDKit          3D

 44 45  0  0  0  0  0  0  0  0999 V2000
   30.1307   15.3159   11.0661 C   0  0  0  0  0  0  0  0  0  0  0  0
   29.4518   14.6503    9.9661 N   0  0  0  0  0  0  0  0  0  0  0  0
   28.3086   15.2641    9.3203 C   0  0  0  0  0  0  0  0  0  0  0  0
   30.1727   13.6547    9.3216 C   0  0  0  0  0  0  0  0  0  0  0  0
   31.3868   13.5580    9.4842 O   0  0  0  0  0  0  0  0  0  0  0  0
   29.3419   12.6930    8.4560 C   0  0  0  0  0  0  0  0  0  0  0  0
   29.6583   11.3211    8.5564 O   0  0  0  0  0  0  0  0  0  0  0  0
   30.7158   10.8090    7.8971 C   0  0  0  0  0  0  0  0  0  0  0  0
   30.9495    9.4592    8.0653 C   0  0  0  0  0  0  0  0  0  0  0  0
   31.9696    8.9049    7.3297 C   0  0  0  0  0  0  0  0  0  0  0  0
   32.7685    9.6013    6.4910 N   0  0  0  0  0  0  0  0  0  0  0  0
   32.5323   10.9149    6.3662 C   0  0  0  0  0  0  0  0  0  0  0  0
   33.3544   11.5279    5.4711 O   0  0  0  0  0  0  0  0  0  0  0  0
   32.9865   12.8188    5.0075 C   0  0  0  0  0  0  0  0  0  0  0  0
   33.4983   13.8482    5.9888 C   0  0  0  0  0  0  0  0  0  0  0  0
   33.0098   13.9098    7.1196 O   0  0  0  0  0  0  0  0  0  0  0  0
   34.5430   14.6657    5.6342 N   0  0  0  0  0  0  0  0  0  0  0  0
   35.4888   14.8900    6.7223 C   0  0  0  0  0  0  0  0  0  0  0  0
   36.5660   13.8091    6.5955 C   0  0  0  0  0  0  0  0  0  0  0  0
   37.2886   14.0213    5.3645 O   0  0  0  0  0  0  0  0  0  0  0  0
   36.4062   13.8141    4.2445 C   0  0  0  0  0  0  0  0  0  0  0  0
   35.1890   14.7447    4.3174 C   0  0  0  0  0  0  0  0  0  0  0  0
   31.5058   11.5380    7.0386 C   0  0  0  0  0  0  0  0  0  0  0  0
   29.4017   15.5510   11.8441 H   0  0  0  0  0  0  0  0  0  0  0  0
   30.6430   16.2084   10.7016 H   0  0  0  0  0  0  0  0  0  0  0  0
   30.8818   14.6647   11.5136 H   0  0  0  0  0  0  0  0  0  0  0  0
   27.9084   14.6808    8.4900 H   0  0  0  0  0  0  0  0  0  0  0  0
   28.6178   16.2113    8.8722 H   0  0  0  0  0  0  0  0  0  0  0  0
   27.5122   15.3874   10.0481 H   0  0  0  0  0  0  0  0  0  0  0  0
   29.3200   13.0443    7.4178 H   0  0  0  0  0  0  0  0  0  0  0  0
   28.3057   12.7392    8.8013 H   0  0  0  0  0  0  0  0  0  0  0  0
   30.3367    8.8466    8.7156 H   0  0  0  0  0  0  0  0  0  0  0  0
   32.1772    7.8460    7.3986 H   0  0  0  0  0  0  0  0  0  0  0  0
   33.4331   12.9214    4.0200 H   0  0  0  0  0  0  0  0  0  0  0  0
   31.9104   12.9490    4.8522 H   0  0  0  0  0  0  0  0  0  0  0  0
   35.0182   14.8487    7.7085 H   0  0  0  0  0  0  0  0  0  0  0  0
   35.9192   15.8760    6.5741 H   0  0  0  0  0  0  0  0  0  0  0  0
   37.2723   13.8191    7.4280 H   0  0  0  0  0  0  0  0  0  0  0  0
   36.1256   12.8106    6.5595 H   0  0  0  0  0  0  0  0  0  0  0  0
   36.0989   12.7618    4.2294 H   0  0  0  0  0  0  0  0  0  0  0  0
   36.9748   14.0086    3.3299 H   0  0  0  0  0  0  0  0  0  0  0  0
   34.4787   14.5504    3.5113 H   0  0  0  0  0  0  0  0  0  0  0  0
   35.5397   15.7710    4.1876 H   0  0  0  0  0  0  0  0  0  0  0  0
   31.2976   12.5805    6.8954 H   0  0  0  0  0  0  0  0  0  0  0  0
  1  2  1  0
  2  3  1  0
  2  4  1  0
  4  5  2  0
  4  6  1  0
  6  7  1  0
  7  8  1  0
  8  9  2  0
  9 10  1  0
 10 11  2  0
 11 12  1  0
 12 13  1  0
 13 14  1  0
 14 15  1  0
 15 16  2  0
 15 17  1  0
 17 18  1  0
 18 19  1  0
 19 20  1  0
 20 21  1  0
 21 22  1  0
 12 23  2  0
 23  8  1  0
 22 17  1  0
  1 24  1  0
  1 25  1  0
  1 26  1  0
  3 27  1  0
  3 28  1  0
  3 29  1  0
  6 30  1  0
  6 31  1  0
  9 32  1  0
 10 33  1  0
 14 34  1  0
 14 35  1  0
 18 36  1  0
 18 37  1  0
 19 38  1  0
 19 39  1  0
 21 40  1  0
 21 41  1  0
 22 42  1  0
 22 43  1  0
 23 44  1  0
M  END
