LIG
     RDKit          3D

 35 36  0  0  0  0  0  0  0  0999 V2000
   28.5580   15.7160    7.2730 N   0  0  0  0  0  0  0  0  0  0  0  0
   28.5830   14.6820    7.7450 C   0  0  0  0  0  0  0  0  0  0  0  0
   28.7130   13.3600    8.3510 C   0  0  0  0  0  0  0  0  0  0  0  0
   29.7090   12.5130    7.5840 C   0  0  0  0  0  0  0  0  0  0  0  0
   29.9180   12.6920    6.3980 O   0  0  0  0  0  0  0  0  0  0  0  0
   30.3770   11.5810    8.3040 N   0  0  0  0  0  0  0  0  0  0  0  0
   31.2980   10.7060    7.7380 C   0  0  0  0  0  0  0  0  0  0  0  0
   32.3120   10.9580    6.8650 C   0  0  0  0  0  0  0  0  0  0  0  0
   32.7600   12.2430    6.2540 C   0  0  0  0  0  0  0  0  0  0  0  0
   33.3300   11.7430    4.6780 N   0  0  0  0  0  0  0  0  0  0  0  0
   33.5900   13.0680    4.7540 C   0  0  0  0  0  0  0  0  0  0  0  0
   33.4420   13.7460    5.7670 O   0  0  0  0  0  0  0  0  0  0  0  0
   34.1200   13.7080    3.4770 C   0  0  0  0  0  0  0  0  0  0  0  0
   33.0230   14.1560    2.5380 C   0  0  0  0  0  0  0  0  0  0  0  0
   33.7650   14.2490    1.2210 C   0  0  0  0  0  0  0  0  0  0  0  0
   34.7960   13.1450    1.3220 C   0  0  0  0  0  0  0  0  0  0  0  0
   34.9020   12.7780    2.7050 O   0  0  0  0  0  0  0  0  0  0  0  0
   32.8910    9.7790    6.6350 C   0  0  0  0  0  0  0  0  0  0  0  0
   32.3120    8.7640    7.3380 C   0  0  0  0  0  0  0  0  0  0  0  0
   31.3250    9.3200    8.0160 C   0  0  0  0  0  0  0  0  0  0  0  0
   30.4340    8.4960    8.8860 F   0  0  0  0  0  0  0  0  0  0  0  0
   27.7446   12.8449    8.3801 H   0  0  0  0  0  0  0  0  0  0  0  0
   29.0557   13.4388    9.3902 H   0  0  0  0  0  0  0  0  0  0  0  0
   30.1890   11.4510    9.2669 H   0  0  0  0  0  0  0  0  0  0  0  0
   32.9502   10.0688    6.5156 H   0  0  0  0  0  0  0  0  0  0  0  0
   33.2401   11.1667    4.4462 H   0  0  0  0  0  0  0  0  0  0  0  0
   34.7739   14.5326    3.7429 H   0  0  0  0  0  0  0  0  0  0  0  0
   32.5661   15.1008    2.8361 H   0  0  0  0  0  0  0  0  0  0  0  0
   32.2299   13.4059    2.4608 H   0  0  0  0  0  0  0  0  0  0  0  0
   34.2671   15.2263    1.1515 H   0  0  0  0  0  0  0  0  0  0  0  0
   33.1116   14.1457    0.3443 H   0  0  0  0  0  0  0  0  0  0  0  0
   35.7810   13.4529    0.9466 H   0  0  0  0  0  0  0  0  0  0  0  0
   34.4805   12.2535    0.7605 H   0  0  0  0  0  0  0  0  0  0  0  0
   33.8068    9.7180    5.8609 H   0  0  0  0  0  0  0  0  0  0  0  0
   32.5915    7.7899    7.3319 H   0  0  0  0  0  0  0  0  0  0  0  0
  1  2  3  0
  2  3  1  0
  3  4  1  0
  4  5  2  0
  4  6  1  0
  6  7  1  0
  7  8  4  0
  8  9  4  0
  9 10  1  0
 10 11  1  0
 11 12  2  0
 11 13  1  0
 13 14  1  0
 14 15  1  0
 15 16  1  0
 16 17  1  0
  9 18  4  0
 18 19  4  0
 19 20  4  0
 20 21  1  0
 20  7  4  0
 17 13  1  0
  3 22  1  0
  3 23  1  0
  6 24  1  0
  8 25  1  0
 10 26  1  0
 13 27  1  0
 14 28  1  0
 14 29  1  0
 15 30  1  0
 15 31  1  0
 16 32  1  0
 16 33  1  0
 18 34  1  0
 19 35  1  0
M  END
$$$$
