LIG
     RDKit          3D

 38 39  0  0  0  0  0  0  0  0999 V2000
   30.6329    8.4319    8.1628 C   0  0  0  0  0  0  0  0  0  0  0  0
   31.3332    9.5567    7.4753 C   0  0  0  0  0  0  0  0  0  0  0  0
   32.4226    9.3535    6.6250 C   0  0  0  0  0  0  0  0  0  0  0  0
   33.1717   10.4311    6.1640 C   0  0  0  0  0  0  0  0  0  0  0  0
   32.8495   11.7056    6.6138 C   0  0  0  0  0  0  0  0  0  0  0  0
   33.7899   12.7343    6.4660 N   0  0  0  0  0  0  0  0  0  0  0  0
   34.2547   13.3967    7.6018 C   0  0  0  0  0  0  0  0  0  0  0  0
   33.9352   13.1055    8.7597 O   0  0  0  0  0  0  0  0  0  0  0  0
   35.2204   14.5291    7.3316 C   0  0  0  0  0  0  0  0  0  0  0  0
   35.7294   14.6574    5.5933 S   0  0  0  0  0  0  0  0  0  0  0  0
   31.6681   11.9379    7.3255 C   0  0  0  0  0  0  0  0  0  0  0  0
   31.3407   13.2549    7.5430 O   0  0  0  0  0  0  0  0  0  0  0  0
   30.2562   13.4476    8.4001 C   0  0  0  0  0  0  0  0  0  0  0  0
   28.9228   13.3712    7.6478 C   0  0  0  0  0  0  0  0  0  0  0  0
   28.3411   14.7490    7.8139 C   0  0  0  0  0  0  0  0  0  0  0  0
   28.8802   15.2299    9.0571 N   0  0  0  0  0  0  0  0  0  0  0  0
   28.1602   14.8640   10.2383 C   0  0  0  0  0  0  0  0  0  0  0  0
   30.2070   14.7758    9.1300 C   0  0  0  0  0  0  0  0  0  0  0  0
   31.0961   15.3290    9.7585 O   0  0  0  0  0  0  0  0  0  0  0  0
   30.9196   10.8495    7.7581 C   0  0  0  0  0  0  0  0  0  0  0  0
   30.9650    7.5007    7.7235 H   0  0  0  0  0  0  0  0  0  0  0  0
   30.8795    8.4193    9.2281 H   0  0  0  0  0  0  0  0  0  0  0  0
   29.5484    8.5054    8.0508 H   0  0  0  0  0  0  0  0  0  0  0  0
   32.7546    8.3475    6.3898 H   0  0  0  0  0  0  0  0  0  0  0  0
   34.0745   10.2465    5.5890 H   0  0  0  0  0  0  0  0  0  0  0  0
   34.5203   12.6239    5.7691 H   0  0  0  0  0  0  0  0  0  0  0  0
   36.1076   14.3754    7.9507 H   0  0  0  0  0  0  0  0  0  0  0  0
   34.7289   15.4544    7.6240 H   0  0  0  0  0  0  0  0  0  0  0  0
   35.6756   16.0042    5.5239 H   0  0  0  0  0  0  0  0  0  0  0  0
   30.2845   12.7446    9.2290 H   0  0  0  0  0  0  0  0  0  0  0  0
   29.0174   13.0957    6.5926 H   0  0  0  0  0  0  0  0  0  0  0  0
   28.2687   12.6355    8.1260 H   0  0  0  0  0  0  0  0  0  0  0  0
   27.2506   14.7640    7.8193 H   0  0  0  0  0  0  0  0  0  0  0  0
   28.7009   15.4110    7.0198 H   0  0  0  0  0  0  0  0  0  0  0  0
   28.0575   13.7767   10.3042 H   0  0  0  0  0  0  0  0  0  0  0  0
   28.6912   15.1785   11.1409 H   0  0  0  0  0  0  0  0  0  0  0  0
   27.1759   15.3105   10.1629 H   0  0  0  0  0  0  0  0  0  0  0  0
   30.0300   10.9476    8.3680 H   0  0  0  0  0  0  0  0  0  0  0  0
  1  2  1  0
  2  3  2  0
  3  4  1  0
  4  5  2  0
  5  6  1  0
  6  7  1  0
  7  8  2  0
  7  9  1  0
  9 10  1  0
  5 11  1  0
 11 12  1  0
 12 13  1  0
 13 14  1  0
 14 15  1  0
 15 16  1  0
 16 17  1  0
 16 18  1  0
 18 19  2  0
 11 20  2  0
 20  2  1  0
 18 13  1  0
  1 21  1  0
  1 22  1  0
  1 23  1  0
  3 24  1  0
  4 25  1  0
  6 26  1  0
  9 27  1  0
  9 28  1  0
 10 29  1  0
 13 30  1  0
 14 31  1  0
 14 32  1  0
 15 33  1  0
 15 34  1  0
 17 35  1  0
 17 36  1  0
 17 37  1  0
 20 38  1  0
M  END
