LIG
     RDKit          3D

 41 42  0  0  0  0  0  0  0  0999 V2000
   30.3842    8.5683    9.0502 C   0  0  0  0  0  0  0  0  0  0  0  0
   31.1007    9.4369    8.0778 C   0  0  0  0  0  0  0  0  0  0  0  0
   32.0924    8.8816    7.2836 C   0  0  0  0  0  0  0  0  0  0  0  0
   32.8647    9.5521    6.3944 N   0  0  0  0  0  0  0  0  0  0  0  0
   32.5996   10.8489    6.2248 C   0  0  0  0  0  0  0  0  0  0  0  0
   33.4094   11.4936    5.3403 O   0  0  0  0  0  0  0  0  0  0  0  0
   33.0331   12.8139    4.9592 C   0  0  0  0  0  0  0  0  0  0  0  0
   33.4967   13.8180    6.0061 C   0  0  0  0  0  0  0  0  0  0  0  0
   32.9999   13.8242    7.1395 O   0  0  0  0  0  0  0  0  0  0  0  0
   34.5347   14.6653    5.6860 N   0  0  0  0  0  0  0  0  0  0  0  0
   35.4633   14.8849    6.7870 C   0  0  0  0  0  0  0  0  0  0  0  0
   36.5514   13.8144    6.6572 C   0  0  0  0  0  0  0  0  0  0  0  0
   37.2874   14.0376    5.4357 O   0  0  0  0  0  0  0  0  0  0  0  0
   36.4175   13.8496    4.3023 C   0  0  0  0  0  0  0  0  0  0  0  0
   35.2007   14.7799    4.3792 C   0  0  0  0  0  0  0  0  0  0  0  0
   31.5583   11.4475    6.8764 C   0  0  0  0  0  0  0  0  0  0  0  0
   30.8054   10.7568    7.8069 C   0  0  0  0  0  0  0  0  0  0  0  0
   29.8110   11.4848    8.4573 N   0  0  0  0  0  0  0  0  0  0  0  0
   29.2333   12.6147    7.9064 C   0  0  0  0  0  0  0  0  0  0  0  0
   29.0665   12.7862    6.6997 O   0  0  0  0  0  0  0  0  0  0  0  0
   28.8583   13.6237    8.9457 C   0  0  0  0  0  0  0  0  0  0  0  0
   28.6385   14.9213    8.3383 C   0  0  0  0  0  0  0  0  0  0  0  0
   28.4736   15.9852    7.9172 N   0  0  0  0  0  0  0  0  0  0  0  0
   31.0849    7.8835    9.5304 H   0  0  0  0  0  0  0  0  0  0  0  0
   29.6038    7.9937    8.5442 H   0  0  0  0  0  0  0  0  0  0  0  0
   29.9339    9.1393    9.8590 H   0  0  0  0  0  0  0  0  0  0  0  0
   32.3251    7.8284    7.3650 H   0  0  0  0  0  0  0  0  0  0  0  0
   31.9623   12.9363    4.7647 H   0  0  0  0  0  0  0  0  0  0  0  0
   33.5014   12.9747    3.9904 H   0  0  0  0  0  0  0  0  0  0  0  0
   34.9794   14.8258    7.7657 H   0  0  0  0  0  0  0  0  0  0  0  0
   35.8846   15.8768    6.6553 H   0  0  0  0  0  0  0  0  0  0  0  0
   36.1173   12.8146    6.6045 H   0  0  0  0  0  0  0  0  0  0  0  0
   37.2472   13.8206    7.4989 H   0  0  0  0  0  0  0  0  0  0  0  0
   36.1113   12.7976    4.2659 H   0  0  0  0  0  0  0  0  0  0  0  0
   36.9966   14.0601    3.3979 H   0  0  0  0  0  0  0  0  0  0  0  0
   34.5035   14.6146    3.5557 H   0  0  0  0  0  0  0  0  0  0  0  0
   35.5615   15.8043    4.2791 H   0  0  0  0  0  0  0  0  0  0  0  0
   31.3237   12.4804    6.6908 H   0  0  0  0  0  0  0  0  0  0  0  0
   29.5114   11.1885    9.3831 H   0  0  0  0  0  0  0  0  0  0  0  0
   27.9696   13.2808    9.4745 H   0  0  0  0  0  0  0  0  0  0  0  0
   29.6775   13.7180    9.6666 H   0  0  0  0  0  0  0  0  0  0  0  0
  1  2  1  0
  2  3  2  0
  3  4  1  0
  4  5  2  0
  5  6  1  0
  6  7  1  0
  7  8  1  0
  8  9  2  0
  8 10  1  0
 10 11  1  0
 11 12  1  0
 12 13  1  0
 13 14  1  0
 14 15  1  0
  5 16  1  0
 16 17  2  0
 17 18  1  0
 18 19  1  0
 19 20  2  0
 19 21  1  0
 21 22  1  0
 22 23  3  0
 17  2  1  0
 15 10  1  0
  1 24  1  0
  1 25  1  0
  1 26  1  0
  3 27  1  0
  7 28  1  0
  7 29  1  0
 11 30  1  0
 11 31  1  0
 12 32  1  0
 12 33  1  0
 14 34  1  0
 14 35  1  0
 15 36  1  0
 15 37  1  0
 16 38  1  0
 18 39  1  0
 21 40  1  0
 21 41  1  0
M  END
