LIG
     RDKit          3D

 34 35  0  0  0  0  0  0  0  0999 V2000
   28.5580   15.7160    7.2730 N   0  0  0  0  0  0  0  0  0  0  0  0
   28.5830   14.6820    7.7450 C   0  0  0  0  0  0  0  0  0  0  0  0
   28.7130   13.3600    8.3510 C   0  0  0  0  0  0  0  0  0  0  0  0
   29.7090   12.5130    7.5840 C   0  0  0  0  0  0  0  0  0  0  0  0
   29.9180   12.6920    6.3980 O   0  0  0  0  0  0  0  0  0  0  0  0
   30.3770   11.5810    8.3040 N   0  0  0  0  0  0  0  0  0  0  0  0
   31.3460   10.4150    7.4890 C   0  0  0  0  0  0  0  0  0  0  0  0
   31.7660    9.0980    7.4680 C   0  0  0  0  0  0  0  0  0  0  0  0
   32.7340    8.7720    6.5300 C   0  0  0  0  0  0  0  0  0  0  0  0
   33.2630    9.6380    5.6520 N   0  0  0  0  0  0  0  0  0  0  0  0
   32.8210   10.9050    5.6820 C   0  0  0  0  0  0  0  0  0  0  0  0
   33.3300   11.7430    4.6780 N   0  0  0  0  0  0  0  0  0  0  0  0
   33.5900   13.0680    4.7540 C   0  0  0  0  0  0  0  0  0  0  0  0
   33.4420   13.7460    5.7670 O   0  0  0  0  0  0  0  0  0  0  0  0
   34.1200   13.7080    3.4770 C   0  0  0  0  0  0  0  0  0  0  0  0
   33.0230   14.1560    2.5380 C   0  0  0  0  0  0  0  0  0  0  0  0
   33.7650   14.2490    1.2210 C   0  0  0  0  0  0  0  0  0  0  0  0
   34.7960   13.1450    1.3220 C   0  0  0  0  0  0  0  0  0  0  0  0
   34.9020   12.7780    2.7050 O   0  0  0  0  0  0  0  0  0  0  0  0
   31.8610   11.3420    6.6030 C   0  0  0  0  0  0  0  0  0  0  0  0
   27.7474   12.8405    8.3738 H   0  0  0  0  0  0  0  0  0  0  0  0
   29.0537   13.4422    9.3900 H   0  0  0  0  0  0  0  0  0  0  0  0
   30.3865   11.4022    9.2154 H   0  0  0  0  0  0  0  0  0  0  0  0
   31.3844    8.3411    8.1251 H   0  0  0  0  0  0  0  0  0  0  0  0
   33.1244    7.7546    6.4616 H   0  0  0  0  0  0  0  0  0  0  0  0
   33.6024   11.2920    3.7951 H   0  0  0  0  0  0  0  0  0  0  0  0
   33.1364   12.2324    3.0481 H   0  0  0  0  0  0  0  0  0  0  0  0
   32.2568   13.3765    2.4619 H   0  0  0  0  0  0  0  0  0  0  0  0
   32.5306   15.0913    2.8111 H   0  0  0  0  0  0  0  0  0  0  0  0
   34.2667   15.2258    1.1472 H   0  0  0  0  0  0  0  0  0  0  0  0
   33.1126   14.1434    0.3443 H   0  0  0  0  0  0  0  0  0  0  0  0
   35.7788   13.4527    0.9467 H   0  0  0  0  0  0  0  0  0  0  0  0
   34.4781   12.2548    0.7641 H   0  0  0  0  0  0  0  0  0  0  0  0
   31.5577   12.3715    6.5942 H   0  0  0  0  0  0  0  0  0  0  0  0
  1  2  3  0
  2  3  1  0
  3  4  1  0
  4  5  2  0
  4  6  1  0
  6  7  1  0
  7  8  4  0
  8  9  4  0
  9 10  4  0
 10 11  4  0
 11 12  1  0
 12 13  1  0
 13 14  2  0
 13 15  1  0
 15 16  1  0
 16 17  1  0
 17 18  1  0
 18 19  1  0
 11 20  4  0
 20  7  4  0
 19 15  1  0
  3 21  1  0
  3 22  1  0
  6 23  1  0
  8 24  1  0
  9 25  1  0
 12 26  1  0
 15 27  1  0
 16 28  1  0
 16 29  1  0
 17 30  1  0
 17 31  1  0
 18 32  1  0
 18 33  1  0
 20 34  1  0
M  END
$$$$
