LIG
     RDKit          3D

 37 37  0  0  0  0  0  0  0  0999 V2000
   29.3990   13.5140    6.5850 C   0  0  0  0  0  0  0  0  0  0  0  0
   29.3000   13.3530    7.8990 C   0  0  0  0  0  0  0  0  0  0  0  0
   28.5340   14.0390    8.5970 O   0  0  0  0  0  0  0  0  0  0  0  0
   30.0510   12.3330    8.4300 N   0  0  0  0  0  0  0  0  0  0  0  0
   30.9750   11.4650    7.7900 C   0  0  0  0  0  0  0  0  0  0  0  0
   30.9610   10.1240    8.1440 C   0  0  0  0  0  0  0  0  0  0  0  0
   31.8970    9.2580    7.6020 C   0  0  0  0  0  0  0  0  0  0  0  0
   32.8430    9.7180    6.6980 C   0  0  0  0  0  0  0  0  0  0  0  0
   32.8390   11.0500    6.3070 C   0  0  0  0  0  0  0  0  0  0  0  0
   33.6960   11.5950    5.3080 N   0  0  0  0  0  0  0  0  0  0  0  0
   34.7220   11.0190    4.6240 C   0  0  0  0  0  0  0  0  0  0  0  0
   34.4770    9.6170    4.1420 C   0  0  0  0  0  0  0  0  0  0  0  0
   35.7630   11.6170    4.3630 O   0  0  0  0  0  0  0  0  0  0  0  0
   31.9160   11.9260    6.8680 C   0  0  0  0  0  0  0  0  0  0  0  0
   32.8952   13.3936    6.9739 C   0  0  0  0  0  0  0  0  0  0  0  0
   34.9080   14.6080    8.8210 N   0  0  0  0  0  0  0  0  0  0  0  0
   33.5770   13.9020    8.2740 S   0  0  0  0  0  0  0  0  0  0  0  0
   34.0500   13.6360    6.5860 C   0  0  0  0  0  0  0  0  0  0  0  0
   32.5040   14.8410    8.3200 O   0  0  0  0  0  0  0  0  0  0  0  0
   33.4410   12.6200    8.8870 O   0  0  0  0  0  0  0  0  0  0  0  0
   30.3343   14.0475    6.2492 H   0  0  0  0  0  0  0  0  0  0  0  0
   29.4177   12.5469    6.0056 H   0  0  0  0  0  0  0  0  0  0  0  0
   28.5469   14.0927    6.1270 H   0  0  0  0  0  0  0  0  0  0  0  0
   29.8553   12.1472    9.4278 H   0  0  0  0  0  0  0  0  0  0  0  0
   30.2592    9.7163    8.8577 H   0  0  0  0  0  0  0  0  0  0  0  0
   31.9080    8.2116    7.9104 H   0  0  0  0  0  0  0  0  0  0  0  0
   33.5722    9.0047    6.3366 H   0  0  0  0  0  0  0  0  0  0  0  0
   33.5323   12.5870    5.0850 H   0  0  0  0  0  0  0  0  0  0  0  0
   35.3995    9.0324    4.2217 H   0  0  0  0  0  0  0  0  0  0  0  0
   34.6624    8.8950    4.9446 H   0  0  0  0  0  0  0  0  0  0  0  0
   33.7008    9.1474    4.7546 H   0  0  0  0  0  0  0  0  0  0  0  0
   32.1110   14.1485    7.0945 H   0  0  0  0  0  0  0  0  0  0  0  0
   33.2769   13.6204    5.9708 H   0  0  0  0  0  0  0  0  0  0  0  0
   34.8096   15.6368    8.9127 H   0  0  0  0  0  0  0  0  0  0  0  0
   34.6707   12.7388    6.5255 H   0  0  0  0  0  0  0  0  0  0  0  0
   35.1404   13.6321    6.5143 H   0  0  0  0  0  0  0  0  0  0  0  0
   34.6239   14.5054    6.2542 H   0  0  0  0  0  0  0  0  0  0  0  0
  1  2  1  0
  2  3  2  0
  2  4  1  0
  4  5  1  0
  5  6  4  0
  6  7  4  0
  7  8  4  0
  8  9  4  0
  9 10  1  0
 10 11  1  0
 11 12  1  0
 11 13  2  0
  9 14  4  0
 14 15  1  0
 15 16  1  0
 16 17  1  0
 17 18  1  0
 17 19  2  0
 17 20  2  0
 14  5  4  0
  1 21  1  0
  1 22  1  0
  1 23  1  0
  4 24  1  0
  6 25  1  0
  7 26  1  0
  8 27  1  0
 10 28  1  0
 12 29  1  0
 12 30  1  0
 12 31  1  0
 15 32  1  0
 15 33  1  0
 16 34  1  0
 18 35  1  0
 18 36  1  0
 18 37  1  0
M  END
$$$$
LIG
     RDKit          3D

 37 37  0  0  0  0  0  0  0  0999 V2000
   34.4770    9.6170    4.1420 C   0  0  0  0  0  0  0  0  0  0  0  0
   34.7220   11.0190    4.6240 C   0  0  0  0  0  0  0  0  0  0  0  0
   35.7630   11.6170    4.3630 O   0  0  0  0  0  0  0  0  0  0  0  0
   33.6960   11.5950    5.3080 N   0  0  0  0  0  0  0  0  0  0  0  0
   32.8390   11.0500    6.3070 C   0  0  0  0  0  0  0  0  0  0  0  0
   32.8430    9.7180    6.6980 C   0  0  0  0  0  0  0  0  0  0  0  0
   31.8970    9.2580    7.6020 C   0  0  0  0  0  0  0  0  0  0  0  0
   30.9610   10.1240    8.1440 C   0  0  0  0  0  0  0  0  0  0  0  0
   30.9750   11.4650    7.7900 C   0  0  0  0  0  0  0  0  0  0  0  0
   30.0510   12.3330    8.4300 N   0  0  0  0  0  0  0  0  0  0  0  0
   29.3000   13.3530    7.8990 C   0  0  0  0  0  0  0  0  0  0  0  0
   29.3990   13.5140    6.5850 C   0  0  0  0  0  0  0  0  0  0  0  0
   28.5340   14.0390    8.5970 O   0  0  0  0  0  0  0  0  0  0  0  0
   31.9160   11.9260    6.8680 C   0  0  0  0  0  0  0  0  0  0  0  0
   33.3163   13.0898    7.0025 C   0  0  0  0  0  0  0  0  0  0  0  0
   34.9080   14.6080    8.8210 N   0  0  0  0  0  0  0  0  0  0  0  0
   33.5770   13.9020    8.2740 S   0  0  0  0  0  0  0  0  0  0  0  0
   34.0500   13.6360    6.5860 C   0  0  0  0  0  0  0  0  0  0  0  0
   32.5040   14.8410    8.3200 O   0  0  0  0  0  0  0  0  0  0  0  0
   33.4410   12.6200    8.8870 O   0  0  0  0  0  0  0  0  0  0  0  0
   35.0982    9.4222    3.2619 H   0  0  0  0  0  0  0  0  0  0  0  0
   34.7387    8.8793    4.9076 H   0  0  0  0  0  0  0  0  0  0  0  0
   33.4218    9.5038    3.8767 H   0  0  0  0  0  0  0  0  0  0  0  0
   33.7622   12.6308    5.3540 H   0  0  0  0  0  0  0  0  0  0  0  0
   33.5388    8.9991    6.2829 H   0  0  0  0  0  0  0  0  0  0  0  0
   31.8679    8.1988    7.8714 H   0  0  0  0  0  0  0  0  0  0  0  0
   30.2483    9.7157    8.8465 H   0  0  0  0  0  0  0  0  0  0  0  0
   29.9031   12.1566    9.4250 H   0  0  0  0  0  0  0  0  0  0  0  0
   29.5782   12.5594    6.0114 H   0  0  0  0  0  0  0  0  0  0  0  0
   28.4894   13.9785    6.1078 H   0  0  0  0  0  0  0  0  0  0  0  0
   30.2490   14.1836    6.2685 H   0  0  0  0  0  0  0  0  0  0  0  0
   34.2381   12.8988    6.4482 H   0  0  0  0  0  0  0  0  0  0  0  0
   32.7728   13.9210    6.5414 H   0  0  0  0  0  0  0  0  0  0  0  0
   35.7178   14.6200    8.1782 H   0  0  0  0  0  0  0  0  0  0  0  0
   33.4596   12.8202    6.1621 H   0  0  0  0  0  0  0  0  0  0  0  0
   33.1720   13.7555    5.9458 H   0  0  0  0  0  0  0  0  0  0  0  0
   34.4302   12.6140    6.4990 H   0  0  0  0  0  0  0  0  0  0  0  0
  1  2  1  0
  2  3  2  0
  2  4  1  0
  4  5  1  0
  5  6  4  0
  6  7  4  0
  7  8  4  0
  8  9  4  0
  9 10  1  0
 10 11  1  0
 11 12  1  0
 11 13  2  0
  9 14  4  0
 14 15  1  0
 15 16  1  0
 16 17  1  0
 17 18  1  0
 17 19  2  0
 17 20  2  0
 14  5  4  0
  1 21  1  0
  1 22  1  0
  1 23  1  0
  4 24  1  0
  6 25  1  0
  7 26  1  0
  8 27  1  0
 10 28  1  0
 12 29  1  0
 12 30  1  0
 12 31  1  0
 15 32  1  0
 15 33  1  0
 16 34  1  0
 18 35  1  0
 18 36  1  0
 18 37  1  0
M  END
$$$$
LIG
     RDKit          3D

 37 37  0  0  0  0  0  0  0  0999 V2000
   34.4770    9.6170    4.1420 C   0  0  0  0  0  0  0  0  0  0  0  0
   34.7220   11.0190    4.6240 C   0  0  0  0  0  0  0  0  0  0  0  0
   35.7630   11.6170    4.3630 O   0  0  0  0  0  0  0  0  0  0  0  0
   33.6960   11.5950    5.3080 N   0  0  0  0  0  0  0  0  0  0  0  0
   32.8390   11.0500    6.3070 C   0  0  0  0  0  0  0  0  0  0  0  0
   32.8430    9.7180    6.6980 C   0  0  0  0  0  0  0  0  0  0  0  0
   31.8970    9.2580    7.6020 C   0  0  0  0  0  0  0  0  0  0  0  0
   30.9610   10.1240    8.1440 C   0  0  0  0  0  0  0  0  0  0  0  0
   30.9750   11.4650    7.7900 C   0  0  0  0  0  0  0  0  0  0  0  0
   30.0510   12.3330    8.4300 N   0  0  0  0  0  0  0  0  0  0  0  0
   29.3000   13.3530    7.8990 C   0  0  0  0  0  0  0  0  0  0  0  0
   29.3990   13.5140    6.5850 C   0  0  0  0  0  0  0  0  0  0  0  0
   28.5340   14.0390    8.5970 O   0  0  0  0  0  0  0  0  0  0  0  0
   31.9160   11.9260    6.8680 C   0  0  0  0  0  0  0  0  0  0  0  0
   33.0623   12.4361    8.4998 C   0  0  0  0  0  0  0  0  0  0  0  0
   34.9080   14.6080    8.8210 N   0  0  0  0  0  0  0  0  0  0  0  0
   33.5770   13.9020    8.2740 S   0  0  0  0  0  0  0  0  0  0  0  0
   34.0500   13.6360    6.5860 C   0  0  0  0  0  0  0  0  0  0  0  0
   32.5040   14.8410    8.3200 O   0  0  0  0  0  0  0  0  0  0  0  0
   33.4410   12.6200    8.8870 O   0  0  0  0  0  0  0  0  0  0  0  0
   33.6008    9.5820    3.4862 H   0  0  0  0  0  0  0  0  0  0  0  0
   34.5473    9.5854    3.0497 H   0  0  0  0  0  0  0  0  0  0  0  0
   33.4770    9.2924    4.4457 H   0  0  0  0  0  0  0  0  0  0  0  0
   33.4716   12.5627    5.0242 H   0  0  0  0  0  0  0  0  0  0  0  0
   33.5613    9.0047    6.3132 H   0  0  0  0  0  0  0  0  0  0  0  0
   31.8759    8.1966    7.8613 H   0  0  0  0  0  0  0  0  0  0  0  0
   30.2126    9.7138    8.8099 H   0  0  0  0  0  0  0  0  0  0  0  0
   29.6698   11.9543    9.3090 H   0  0  0  0  0  0  0  0  0  0  0  0
   30.3719   13.1708    6.1244 H   0  0  0  0  0  0  0  0  0  0  0  0
   29.2880   14.5841    6.2523 H   0  0  0  0  0  0  0  0  0  0  0  0
   28.6210   12.9450    6.0012 H   0  0  0  0  0  0  0  0  0  0  0  0
   33.9514   11.8104    8.6468 H   0  0  0  0  0  0  0  0  0  0  0  0
   32.5605   12.4147    9.4713 H   0  0  0  0  0  0  0  0  0  0  0  0
   35.3382   14.1830    9.6727 H   0  0  0  0  0  0  0  0  0  0  0  0
   34.9941   13.0871    6.5524 H   0  0  0  0  0  0  0  0  0  0  0  0
   33.2665   13.0441    6.1048 H   0  0  0  0  0  0  0  0  0  0  0  0
   34.1402   14.6026    6.0839 H   0  0  0  0  0  0  0  0  0  0  0  0
  1  2  1  0
  2  3  2  0
  2  4  1  0
  4  5  1  0
  5  6  4  0
  6  7  4  0
  7  8  4  0
  8  9  4  0
  9 10  1  0
 10 11  1  0
 11 12  1  0
 11 13  2  0
  9 14  4  0
 14 15  1  0
 15 16  1  0
 16 17  1  0
 17 18  1  0
 17 19  2  0
 17 20  2  0
 14  5  4  0
  1 21  1  0
  1 22  1  0
  1 23  1  0
  4 24  1  0
  6 25  1  0
  7 26  1  0
  8 27  1  0
 10 28  1  0
 12 29  1  0
 12 30  1  0
 12 31  1  0
 15 32  1  0
 15 33  1  0
 16 34  1  0
 18 35  1  0
 18 36  1  0
 18 37  1  0
M  END
$$$$
LIG
     RDKit          3D

 37 37  0  0  0  0  0  0  0  0999 V2000
   34.4770    9.6170    4.1420 C   0  0  0  0  0  0  0  0  0  0  0  0
   34.7220   11.0190    4.6240 C   0  0  0  0  0  0  0  0  0  0  0  0
   35.7630   11.6170    4.3630 O   0  0  0  0  0  0  0  0  0  0  0  0
   33.6960   11.5950    5.3080 N   0  0  0  0  0  0  0  0  0  0  0  0
   32.8390   11.0500    6.3070 C   0  0  0  0  0  0  0  0  0  0  0  0
   32.8430    9.7180    6.6980 C   0  0  0  0  0  0  0  0  0  0  0  0
   31.8970    9.2580    7.6020 C   0  0  0  0  0  0  0  0  0  0  0  0
   30.9610   10.1240    8.1440 C   0  0  0  0  0  0  0  0  0  0  0  0
   30.9750   11.4650    7.7900 C   0  0  0  0  0  0  0  0  0  0  0  0
   30.0510   12.3330    8.4300 N   0  0  0  0  0  0  0  0  0  0  0  0
   29.3000   13.3530    7.8990 C   0  0  0  0  0  0  0  0  0  0  0  0
   29.3990   13.5140    6.5850 C   0  0  0  0  0  0  0  0  0  0  0  0
   28.5340   14.0390    8.5970 O   0  0  0  0  0  0  0  0  0  0  0  0
   31.9160   11.9260    6.8680 C   0  0  0  0  0  0  0  0  0  0  0  0
   33.2923   12.2721    8.4778 C   0  0  0  0  0  0  0  0  0  0  0  0
   34.9080   14.6080    8.8210 N   0  0  0  0  0  0  0  0  0  0  0  0
   33.5770   13.9020    8.2740 S   0  0  0  0  0  0  0  0  0  0  0  0
   34.0500   13.6360    6.5860 C   0  0  0  0  0  0  0  0  0  0  0  0
   33.4410   12.6200    8.8870 O   0  0  0  0  0  0  0  0  0  0  0  0
   32.5040   14.8410    8.3200 O   0  0  0  0  0  0  0  0  0  0  0  0
   33.4292    9.3437    4.3014 H   0  0  0  0  0  0  0  0  0  0  0  0
   35.1072    8.9180    4.7014 H   0  0  0  0  0  0  0  0  0  0  0  0
   34.1054    8.9959    4.9631 H   0  0  0  0  0  0  0  0  0  0  0  0
   33.4784   12.5643    5.0020 H   0  0  0  0  0  0  0  0  0  0  0  0
   33.5461    8.9971    6.3040 H   0  0  0  0  0  0  0  0  0  0  0  0
   31.8725    8.1996    7.8657 H   0  0  0  0  0  0  0  0  0  0  0  0
   30.2317    9.7057    8.8245 H   0  0  0  0  0  0  0  0  0  0  0  0
   29.9413   12.2026    9.4400 H   0  0  0  0  0  0  0  0  0  0  0  0
   28.6582   14.2480    6.1578 H   0  0  0  0  0  0  0  0  0  0  0  0
   29.6340   14.5709    6.2708 H   0  0  0  0  0  0  0  0  0  0  0  0
   28.4611   13.2685    6.0069 H   0  0  0  0  0  0  0  0  0  0  0  0
   32.9965   11.9323    9.4780 H   0  0  0  0  0  0  0  0  0  0  0  0
   34.2740   11.8015    8.3586 H   0  0  0  0  0  0  0  0  0  0  0  0
   35.0703   14.4337    9.8308 H   0  0  0  0  0  0  0  0  0  0  0  0
   34.5526   14.5294    6.2081 H   0  0  0  0  0  0  0  0  0  0  0  0
   34.7374   12.7863    6.5563 H   0  0  0  0  0  0  0  0  0  0  0  0
   33.1581   13.4098    5.9966 H   0  0  0  0  0  0  0  0  0  0  0  0
  1  2  1  0
  2  3  2  0
  2  4  1  0
  4  5  1  0
  5  6  4  0
  6  7  4  0
  7  8  4  0
  8  9  4  0
  9 10  1  0
 10 11  1  0
 11 12  1  0
 11 13  2  0
  9 14  4  0
 14 15  1  0
 15 16  1  0
 16 17  1  0
 17 18  1  0
 17 19  2  0
 17 20  2  0
 14  5  4  0
  1 21  1  0
  1 22  1  0
  1 23  1  0
  4 24  1  0
  6 25  1  0
  7 26  1  0
  8 27  1  0
 10 28  1  0
 12 29  1  0
 12 30  1  0
 12 31  1  0
 15 32  1  0
 15 33  1  0
 16 34  1  0
 18 35  1  0
 18 36  1  0
 18 37  1  0
M  END
$$$$
LIG
     RDKit          3D

 37 37  0  0  0  0  0  0  0  0999 V2000
   29.3990   13.5140    6.5850 C   0  0  0  0  0  0  0  0  0  0  0  0
   29.3000   13.3530    7.8990 C   0  0  0  0  0  0  0  0  0  0  0  0
   28.5340   14.0390    8.5970 O   0  0  0  0  0  0  0  0  0  0  0  0
   30.0510   12.3330    8.4300 N   0  0  0  0  0  0  0  0  0  0  0  0
   30.9750   11.4650    7.7900 C   0  0  0  0  0  0  0  0  0  0  0  0
   30.9610   10.1240    8.1440 C   0  0  0  0  0  0  0  0  0  0  0  0
   31.8970    9.2580    7.6020 C   0  0  0  0  0  0  0  0  0  0  0  0
   32.8430    9.7180    6.6980 C   0  0  0  0  0  0  0  0  0  0  0  0
   32.8390   11.0500    6.3070 C   0  0  0  0  0  0  0  0  0  0  0  0
   33.6960   11.5950    5.3080 N   0  0  0  0  0  0  0  0  0  0  0  0
   34.7220   11.0190    4.6240 C   0  0  0  0  0  0  0  0  0  0  0  0
   34.4770    9.6170    4.1420 C   0  0  0  0  0  0  0  0  0  0  0  0
   35.7630   11.6170    4.3630 O   0  0  0  0  0  0  0  0  0  0  0  0
   31.9160   11.9260    6.8680 C   0  0  0  0  0  0  0  0  0  0  0  0
   33.3163   13.0898    7.0025 C   0  0  0  0  0  0  0  0  0  0  0  0
   34.9080   14.6080    8.8210 N   0  0  0  0  0  0  0  0  0  0  0  0
   33.5770   13.9020    8.2740 S   0  0  0  0  0  0  0  0  0  0  0  0
   34.0500   13.6360    6.5860 C   0  0  0  0  0  0  0  0  0  0  0  0
   32.5040   14.8410    8.3200 O   0  0  0  0  0  0  0  0  0  0  0  0
   33.4410   12.6200    8.8870 O   0  0  0  0  0  0  0  0  0  0  0  0
   30.0071   12.7162    6.0705 H   0  0  0  0  0  0  0  0  0  0  0  0
   30.4550   13.6437    6.2103 H   0  0  0  0  0  0  0  0  0  0  0  0
   29.8916   14.4794    6.2748 H   0  0  0  0  0  0  0  0  0  0  0  0
   29.9031   12.1566    9.4250 H   0  0  0  0  0  0  0  0  0  0  0  0
   30.2483    9.7157    8.8465 H   0  0  0  0  0  0  0  0  0  0  0  0
   31.8679    8.1988    7.8714 H   0  0  0  0  0  0  0  0  0  0  0  0
   33.5388    8.9991    6.2829 H   0  0  0  0  0  0  0  0  0  0  0  0
   33.7622   12.6308    5.3540 H   0  0  0  0  0  0  0  0  0  0  0  0
   33.5917    9.2115    4.6405 H   0  0  0  0  0  0  0  0  0  0  0  0
   34.3138    9.6288    3.0596 H   0  0  0  0  0  0  0  0  0  0  0  0
   35.3354    8.9684    4.3451 H   0  0  0  0  0  0  0  0  0  0  0  0
   34.2381   12.8988    6.4482 H   0  0  0  0  0  0  0  0  0  0  0  0
   32.7728   13.9210    6.5414 H   0  0  0  0  0  0  0  0  0  0  0  0
   34.8909   14.9163    9.8078 H   0  0  0  0  0  0  0  0  0  0  0  0
   33.7110   14.4820    5.9823 H   0  0  0  0  0  0  0  0  0  0  0  0
   34.7174   14.4506    6.2901 H   0  0  0  0  0  0  0  0  0  0  0  0
   33.1623   13.6441    5.9489 H   0  0  0  0  0  0  0  0  0  0  0  0
  1  2  1  0
  2  3  2  0
  2  4  1  0
  4  5  1  0
  5  6  4  0
  6  7  4  0
  7  8  4  0
  8  9  4  0
  9 10  1  0
 10 11  1  0
 11 12  1  0
 11 13  2  0
  9 14  4  0
 14 15  1  0
 15 16  1  0
 16 17  1  0
 17 18  1  0
 17 19  2  0
 17 20  2  0
 14  5  4  0
  1 21  1  0
  1 22  1  0
  1 23  1  0
  4 24  1  0
  6 25  1  0
  7 26  1  0
  8 27  1  0
 10 28  1  0
 12 29  1  0
 12 30  1  0
 12 31  1  0
 15 32  1  0
 15 33  1  0
 16 34  1  0
 18 35  1  0
 18 36  1  0
 18 37  1  0
M  END
$$$$
LIG
     RDKit          3D

 37 37  0  0  0  0  0  0  0  0999 V2000
   29.3990   13.5140    6.5850 C   0  0  0  0  0  0  0  0  0  0  0  0
   29.3000   13.3530    7.8990 C   0  0  0  0  0  0  0  0  0  0  0  0
   28.5340   14.0390    8.5970 O   0  0  0  0  0  0  0  0  0  0  0  0
   30.0510   12.3330    8.4300 N   0  0  0  0  0  0  0  0  0  0  0  0
   30.9750   11.4650    7.7900 C   0  0  0  0  0  0  0  0  0  0  0  0
   30.9610   10.1240    8.1440 C   0  0  0  0  0  0  0  0  0  0  0  0
   31.8970    9.2580    7.6020 C   0  0  0  0  0  0  0  0  0  0  0  0
   32.8430    9.7180    6.6980 C   0  0  0  0  0  0  0  0  0  0  0  0
   32.8390   11.0500    6.3070 C   0  0  0  0  0  0  0  0  0  0  0  0
   33.6960   11.5950    5.3080 N   0  0  0  0  0  0  0  0  0  0  0  0
   34.7220   11.0190    4.6240 C   0  0  0  0  0  0  0  0  0  0  0  0
   34.4770    9.6170    4.1420 C   0  0  0  0  0  0  0  0  0  0  0  0
   35.7630   11.6170    4.3630 O   0  0  0  0  0  0  0  0  0  0  0  0
   31.9160   11.9260    6.8680 C   0  0  0  0  0  0  0  0  0  0  0  0
   32.9899   13.2883    7.0195 C   0  0  0  0  0  0  0  0  0  0  0  0
   34.9080   14.6080    8.8210 N   0  0  0  0  0  0  0  0  0  0  0  0
   33.5770   13.9020    8.2740 S   0  0  0  0  0  0  0  0  0  0  0  0
   34.0500   13.6360    6.5860 C   0  0  0  0  0  0  0  0  0  0  0  0
   33.4410   12.6200    8.8870 O   0  0  0  0  0  0  0  0  0  0  0  0
   32.5040   14.8410    8.3200 O   0  0  0  0  0  0  0  0  0  0  0  0
   29.3845   12.5562    5.9879 H   0  0  0  0  0  0  0  0  0  0  0  0
   30.2854   12.9905    6.1270 H   0  0  0  0  0  0  0  0  0  0  0  0
   28.5112   13.1244    6.0098 H   0  0  0  0  0  0  0  0  0  0  0  0
   29.8813   12.1443    9.4256 H   0  0  0  0  0  0  0  0  0  0  0  0
   30.2438    9.7180    8.8458 H   0  0  0  0  0  0  0  0  0  0  0  0
   31.9047    8.2112    7.9161 H   0  0  0  0  0  0  0  0  0  0  0  0
   33.5920    9.0194    6.3460 H   0  0  0  0  0  0  0  0  0  0  0  0
   33.2884   12.4194    4.8324 H   0  0  0  0  0  0  0  0  0  0  0  0
   33.5582    9.5927    3.5474 H   0  0  0  0  0  0  0  0  0  0  0  0
   34.4706    9.5658    3.0483 H   0  0  0  0  0  0  0  0  0  0  0  0
   33.5157    9.2636    4.5263 H   0  0  0  0  0  0  0  0  0  0  0  0
   32.1899   14.0387    6.9934 H   0  0  0  0  0  0  0  0  0  0  0  0
   33.5557   13.4733    6.1020 H   0  0  0  0  0  0  0  0  0  0  0  0
   34.7681   15.4474    9.4266 H   0  0  0  0  0  0  0  0  0  0  0  0
   35.0599   13.2189    6.5598 H   0  0  0  0  0  0  0  0  0  0  0  0
   34.9601   14.1996    6.3678 H   0  0  0  0  0  0  0  0  0  0  0  0
   34.2417   12.5676    6.4530 H   0  0  0  0  0  0  0  0  0  0  0  0
  1  2  1  0
  2  3  2  0
  2  4  1  0
  4  5  1  0
  5  6  4  0
  6  7  4  0
  7  8  4  0
  8  9  4  0
  9 10  1  0
 10 11  1  0
 11 12  1  0
 11 13  2  0
  9 14  4  0
 14 15  1  0
 15 16  1  0
 16 17  1  0
 17 18  1  0
 17 19  2  0
 17 20  2  0
 14  5  4  0
  1 21  1  0
  1 22  1  0
  1 23  1  0
  4 24  1  0
  6 25  1  0
  7 26  1  0
  8 27  1  0
 10 28  1  0
 12 29  1  0
 12 30  1  0
 12 31  1  0
 15 32  1  0
 15 33  1  0
 16 34  1  0
 18 35  1  0
 18 36  1  0
 18 37  1  0
M  END
$$$$
LIG
     RDKit          3D

 37 37  0  0  0  0  0  0  0  0999 V2000
   29.3990   13.5140    6.5850 C   0  0  0  0  0  0  0  0  0  0  0  0
   29.3000   13.3530    7.8990 C   0  0  0  0  0  0  0  0  0  0  0  0
   28.5340   14.0390    8.5970 O   0  0  0  0  0  0  0  0  0  0  0  0
   30.0510   12.3330    8.4300 N   0  0  0  0  0  0  0  0  0  0  0  0
   30.9750   11.4650    7.7900 C   0  0  0  0  0  0  0  0  0  0  0  0
   30.9610   10.1240    8.1440 C   0  0  0  0  0  0  0  0  0  0  0  0
   31.8970    9.2580    7.6020 C   0  0  0  0  0  0  0  0  0  0  0  0
   32.8430    9.7180    6.6980 C   0  0  0  0  0  0  0  0  0  0  0  0
   32.8390   11.0500    6.3070 C   0  0  0  0  0  0  0  0  0  0  0  0
   33.6960   11.5950    5.3080 N   0  0  0  0  0  0  0  0  0  0  0  0
   34.7220   11.0190    4.6240 C   0  0  0  0  0  0  0  0  0  0  0  0
   34.4770    9.6170    4.1420 C   0  0  0  0  0  0  0  0  0  0  0  0
   35.7630   11.6170    4.3630 O   0  0  0  0  0  0  0  0  0  0  0  0
   31.9160   11.9260    6.8680 C   0  0  0  0  0  0  0  0  0  0  0  0
   33.1705   12.4146    8.3985 C   0  0  0  0  0  0  0  0  0  0  0  0
   34.9080   14.6080    8.8210 N   0  0  0  0  0  0  0  0  0  0  0  0
   33.5770   13.9020    8.2740 S   0  0  0  0  0  0  0  0  0  0  0  0
   34.0500   13.6360    6.5860 C   0  0  0  0  0  0  0  0  0  0  0  0
   33.4410   12.6200    8.8870 O   0  0  0  0  0  0  0  0  0  0  0  0
   32.5040   14.8410    8.3200 O   0  0  0  0  0  0  0  0  0  0  0  0
   29.0239   14.5015    6.1850 H   0  0  0  0  0  0  0  0  0  0  0  0
   30.0282   14.3986    6.2872 H   0  0  0  0  0  0  0  0  0  0  0  0
   28.4066   13.6736    6.0773 H   0  0  0  0  0  0  0  0  0  0  0  0
   29.5604   11.8795    9.2472 H   0  0  0  0  0  0  0  0  0  0  0  0
   30.1903    9.7133    8.7881 H   0  0  0  0  0  0  0  0  0  0  0  0
   31.8810    8.1987    7.8780 H   0  0  0  0  0  0  0  0  0  0  0  0
   33.6059    9.0283    6.3539 H   0  0  0  0  0  0  0  0  0  0  0  0
   33.2035   12.3219    4.7211 H   0  0  0  0  0  0  0  0  0  0  0  0
   33.4223    9.3642    4.2835 H   0  0  0  0  0  0  0  0  0  0  0  0
   34.0887    8.9811    4.9441 H   0  0  0  0  0  0  0  0  0  0  0  0
   35.1013    8.9237    4.7143 H   0  0  0  0  0  0  0  0  0  0  0  0
   32.6473   12.4581    9.3595 H   0  0  0  0  0  0  0  0  0  0  0  0
   34.0543   11.8189    8.6086 H   0  0  0  0  0  0  0  0  0  0  0  0
   34.6841   15.3107    9.5640 H   0  0  0  0  0  0  0  0  0  0  0  0
   33.1378   13.5508    5.9893 H   0  0  0  0  0  0  0  0  0  0  0  0
   34.6214   12.7073    6.5163 H   0  0  0  0  0  0  0  0  0  0  0  0
   34.6374   14.4855    6.2323 H   0  0  0  0  0  0  0  0  0  0  0  0
  1  2  1  0
  2  3  2  0
  2  4  1  0
  4  5  1  0
  5  6  4  0
  6  7  4  0
  7  8  4  0
  8  9  4  0
  9 10  1  0
 10 11  1  0
 11 12  1  0
 11 13  2  0
  9 14  4  0
 14 15  1  0
 15 16  1  0
 16 17  1  0
 17 18  1  0
 17 19  2  0
 17 20  2  0
 14  5  4  0
  1 21  1  0
  1 22  1  0
  1 23  1  0
  4 24  1  0
  6 25  1  0
  7 26  1  0
  8 27  1  0
 10 28  1  0
 12 29  1  0
 12 30  1  0
 12 31  1  0
 15 32  1  0
 15 33  1  0
 16 34  1  0
 18 35  1  0
 18 36  1  0
 18 37  1  0
M  END
$$$$
