LIG
     RDKit          3D

 37 37  0  0  0  0  0  0  0  0999 V2000
    1.5270   -4.3183    0.5995 C   0  0  0  0  0  0  0  0  0  0  0  0
    0.2288   -3.7631    0.0680 C   0  0  0  0  0  0  0  0  0  0  0  0
   -0.6746   -4.5110   -0.2880 O   0  0  0  0  0  0  0  0  0  0  0  0
    0.2331   -2.3781    0.0305 N   0  0  0  0  0  0  0  0  0  0  0  0
   -0.8397   -1.5133   -0.3121 C   0  0  0  0  0  0  0  0  0  0  0  0
   -2.1394   -2.0033   -0.4681 C   0  0  0  0  0  0  0  0  0  0  0  0
   -3.2041   -1.1421   -0.7161 C   0  0  0  0  0  0  0  0  0  0  0  0
   -2.9948    0.2314   -0.7863 C   0  0  0  0  0  0  0  0  0  0  0  0
   -1.7130    0.7671   -0.6417 C   0  0  0  0  0  0  0  0  0  0  0  0
   -1.4921    2.1704   -0.6434 N   0  0  0  0  0  0  0  0  0  0  0  0
   -2.4124    3.1785   -0.8857 C   0  0  0  0  0  0  0  0  0  0  0  0
   -1.7932    4.5461   -0.7349 C   0  0  0  0  0  0  0  0  0  0  0  0
   -3.5900    3.0534   -1.1961 O   0  0  0  0  0  0  0  0  0  0  0  0
   -0.6106   -0.1160   -0.4548 C   0  0  0  0  0  0  0  0  0  0  0  0
    0.8004    0.4287   -0.4572 C   0  0  0  0  0  0  0  0  0  0  0  0
    1.2095    0.9237    0.8617 N   0  0  0  0  0  0  0  0  0  0  0  0
    2.5339    0.2064    1.5970 S   0  0  0  0  0  0  0  0  0  0  0  0
    3.8927    1.0594    0.8249 C   0  0  0  0  0  0  0  0  0  0  0  0
    2.4736    0.5973    2.9853 O   0  0  0  0  0  0  0  0  0  0  0  0
    2.5422   -1.1842    1.1960 O   0  0  0  0  0  0  0  0  0  0  0  0
    2.3616   -3.9759   -0.0186 H   0  0  0  0  0  0  0  0  0  0  0  0
    1.6711   -3.9978    1.6349 H   0  0  0  0  0  0  0  0  0  0  0  0
    1.4976   -5.4113    0.5718 H   0  0  0  0  0  0  0  0  0  0  0  0
    1.1029   -1.9527    0.3514 H   0  0  0  0  0  0  0  0  0  0  0  0
   -2.3708   -3.0601   -0.3755 H   0  0  0  0  0  0  0  0  0  0  0  0
   -4.2090   -1.5433   -0.8270 H   0  0  0  0  0  0  0  0  0  0  0  0
   -3.8687    0.8561   -0.9418 H   0  0  0  0  0  0  0  0  0  0  0  0
   -0.5611    2.4880   -0.4090 H   0  0  0  0  0  0  0  0  0  0  0  0
   -0.9632    4.6593   -1.4379 H   0  0  0  0  0  0  0  0  0  0  0  0
   -1.4352    4.6808    0.2895 H   0  0  0  0  0  0  0  0  0  0  0  0
   -2.5416    5.3145   -0.9492 H   0  0  0  0  0  0  0  0  0  0  0  0
    0.8811    1.2593   -1.1692 H   0  0  0  0  0  0  0  0  0  0  0  0
    1.5048   -0.2985   -0.8749 H   0  0  0  0  0  0  0  0  0  0  0  0
    0.4579    1.0854    1.5378 H   0  0  0  0  0  0  0  0  0  0  0  0
    3.7997    2.1281    1.0262 H   0  0  0  0  0  0  0  0  0  0  0  0
    3.8766    0.8573   -0.2474 H   0  0  0  0  0  0  0  0  0  0  0  0
    4.8186    0.6779    1.2604 H   0  0  0  0  0  0  0  0  0  0  0  0
  1  2  1  0
  2  3  2  0
  2  4  1  0
  4  5  1  0
  5  6  2  0
  6  7  1  0
  7  8  2  0
  8  9  1  0
  9 10  1  0
 10 11  1  0
 11 12  1  0
 11 13  2  0
  9 14  2  0
 14 15  1  0
 15 16  1  0
 16 17  1  0
 17 18  1  0
 17 19  2  0
 17 20  2  0
 14  5  1  0
  1 21  1  0
  1 22  1  0
  1 23  1  0
  4 24  1  0
  6 25  1  0
  7 26  1  0
  8 27  1  0
 10 28  1  0
 12 29  1  0
 12 30  1  0
 12 31  1  0
 15 32  1  0
 15 33  1  0
 16 34  1  0
 18 35  1  0
 18 36  1  0
 18 37  1  0
M  END
