LIG
     RDKit          3D

 40 41  0  0  0  0  0  0  0  0999 V2000
   30.9047    8.3230    8.1147 C   0  0  0  0  0  0  0  0  0  0  0  0
   31.4931    9.5193    7.4540 C   0  0  0  0  0  0  0  0  0  0  0  0
   31.0620   10.7546    7.8657 C   0  0  0  0  0  0  0  0  0  0  0  0
   31.6864   11.8768    7.3536 C   0  0  0  0  0  0  0  0  0  0  0  0
   31.2540   13.1671    7.5523 O   0  0  0  0  0  0  0  0  0  0  0  0
   30.2216   13.2882    8.4984 C   0  0  0  0  0  0  0  0  0  0  0  0
   28.8600   12.8540    7.9394 C   0  0  0  0  0  0  0  0  0  0  0  0
   28.3883   14.0933    7.2501 C   0  0  0  0  0  0  0  0  0  0  0  0
   28.7885   15.1178    8.1681 N   0  0  0  0  0  0  0  0  0  0  0  0
   27.8029   15.7836    8.9398 C   0  0  0  0  0  0  0  0  0  0  0  0
   29.9402   14.7263    8.8708 C   0  0  0  0  0  0  0  0  0  0  0  0
   30.5412   15.3977    9.6989 O   0  0  0  0  0  0  0  0  0  0  0  0
   32.8202   11.7130    6.5577 C   0  0  0  0  0  0  0  0  0  0  0  0
   33.7074   12.7947    6.3965 N   0  0  0  0  0  0  0  0  0  0  0  0
   34.2163   13.4174    7.5394 C   0  0  0  0  0  0  0  0  0  0  0  0
   33.9176   13.1108    8.6989 O   0  0  0  0  0  0  0  0  0  0  0  0
   35.1972   14.5394    7.2742 C   0  0  0  0  0  0  0  0  0  0  0  0
   35.7301   14.6473    5.5434 S   0  0  0  0  0  0  0  0  0  0  0  0
   33.1151   10.4421    6.0734 C   0  0  0  0  0  0  0  0  0  0  0  0
   34.2178   10.1845    5.0947 C   0  0  0  0  0  0  0  0  0  0  0  0
   32.4479    9.3511    6.5123 N   0  0  0  0  0  0  0  0  0  0  0  0
   29.8118    8.3535    8.1016 H   0  0  0  0  0  0  0  0  0  0  0  0
   31.2460    7.4539    7.5676 H   0  0  0  0  0  0  0  0  0  0  0  0
   31.2419    8.2466    9.1504 H   0  0  0  0  0  0  0  0  0  0  0  0
   30.2612   10.7827    8.5920 H   0  0  0  0  0  0  0  0  0  0  0  0
   30.4899   12.7950    9.4245 H   0  0  0  0  0  0  0  0  0  0  0  0
   28.1855   12.6307    8.7705 H   0  0  0  0  0  0  0  0  0  0  0  0
   28.8677   12.0160    7.2408 H   0  0  0  0  0  0  0  0  0  0  0  0
   27.3149   14.0841    7.0565 H   0  0  0  0  0  0  0  0  0  0  0  0
   28.9189   14.2550    6.3050 H   0  0  0  0  0  0  0  0  0  0  0  0
   28.0292   16.8411    8.8645 H   0  0  0  0  0  0  0  0  0  0  0  0
   27.8209   15.4108    9.9662 H   0  0  0  0  0  0  0  0  0  0  0  0
   26.8129   15.5862    8.5378 H   0  0  0  0  0  0  0  0  0  0  0  0
   34.4010   12.7461    5.6557 H   0  0  0  0  0  0  0  0  0  0  0  0
   34.7167   15.4736    7.5557 H   0  0  0  0  0  0  0  0  0  0  0  0
   36.0759   14.3791    7.9040 H   0  0  0  0  0  0  0  0  0  0  0  0
   35.6912   15.9946    5.4616 H   0  0  0  0  0  0  0  0  0  0  0  0
   35.1703   10.5845    5.4499 H   0  0  0  0  0  0  0  0  0  0  0  0
   33.9757   10.6494    4.1338 H   0  0  0  0  0  0  0  0  0  0  0  0
   34.3471    9.1103    4.9258 H   0  0  0  0  0  0  0  0  0  0  0  0
  1  2  1  0
  2  3  2  0
  3  4  1  0
  4  5  1  0
  5  6  1  0
  6  7  1  0
  7  8  1  0
  8  9  1  0
  9 10  1  0
  9 11  1  0
 11 12  2  0
  4 13  2  0
 13 14  1  0
 14 15  1  0
 15 16  2  0
 15 17  1  0
 17 18  1  0
 13 19  1  0
 19 20  1  0
 19 21  2  0
 21  2  1  0
 11  6  1  0
  1 22  1  0
  1 23  1  0
  1 24  1  0
  3 25  1  0
  6 26  1  0
  7 27  1  0
  7 28  1  0
  8 29  1  0
  8 30  1  0
 10 31  1  0
 10 32  1  0
 10 33  1  0
 14 34  1  0
 17 35  1  0
 17 36  1  0
 18 37  1  0
 20 38  1  0
 20 39  1  0
 20 40  1  0
M  END
