LIG
     RDKit          3D

 38 39  0  0  0  0  0  0  0  0999 V2000
   -3.5613    2.4316   -1.5668 C   0  0  0  0  0  0  0  0  0  0  0  0
   -2.3508    1.5782   -1.2967 C   0  0  0  0  0  0  0  0  0  0  0  0
   -2.2339    0.3604   -1.9870 C   0  0  0  0  0  0  0  0  0  0  0  0
   -1.1400   -0.4826   -1.7834 C   0  0  0  0  0  0  0  0  0  0  0  0
   -0.1425   -0.1264   -0.8833 C   0  0  0  0  0  0  0  0  0  0  0  0
    0.9903   -0.9169   -0.6181 N   0  0  0  0  0  0  0  0  0  0  0  0
    1.3030   -2.1695   -1.1199 C   0  0  0  0  0  0  0  0  0  0  0  0
    0.6413   -2.8248   -1.9184 O   0  0  0  0  0  0  0  0  0  0  0  0
    2.6681   -2.6592   -0.5898 C   0  0  0  0  0  0  0  0  0  0  0  0
    2.7078   -4.1627   -0.3718 C   0  0  0  0  0  0  0  0  0  0  0  0
    2.2997   -4.2822    1.0759 C   0  0  0  0  0  0  0  0  0  0  0  0
    2.9641   -3.0698    1.6887 C   0  0  0  0  0  0  0  0  0  0  0  0
    2.9777   -2.0487    0.6790 O   0  0  0  0  0  0  0  0  0  0  0  0
   -0.2513    1.0901   -0.1923 C   0  0  0  0  0  0  0  0  0  0  0  0
   -1.3413    1.9518   -0.3843 C   0  0  0  0  0  0  0  0  0  0  0  0
   -1.4635    3.1908    0.2955 N   0  0  0  0  0  0  0  0  0  0  0  0
   -0.6059    3.7326    1.2428 C   0  0  0  0  0  0  0  0  0  0  0  0
    0.4149    3.2150    1.6866 O   0  0  0  0  0  0  0  0  0  0  0  0
   -1.0276    5.1061    1.7145 C   0  0  0  0  0  0  0  0  0  0  0  0
   -2.0625    4.9939    2.7394 C   0  0  0  0  0  0  0  0  0  0  0  0
   -2.9144    4.9289    3.5248 N   0  0  0  0  0  0  0  0  0  0  0  0
   -4.2262    1.9700   -2.3049 H   0  0  0  0  0  0  0  0  0  0  0  0
   -3.2585    3.4055   -1.9648 H   0  0  0  0  0  0  0  0  0  0  0  0
   -4.1397    2.5720   -0.6479 H   0  0  0  0  0  0  0  0  0  0  0  0
   -2.9995    0.0505   -2.6962 H   0  0  0  0  0  0  0  0  0  0  0  0
   -1.0991   -1.4106   -2.3452 H   0  0  0  0  0  0  0  0  0  0  0  0
    1.6459   -0.5755    0.0831 H   0  0  0  0  0  0  0  0  0  0  0  0
    3.4228   -2.3457   -1.3202 H   0  0  0  0  0  0  0  0  0  0  0  0
    2.0686   -4.7417   -1.0436 H   0  0  0  0  0  0  0  0  0  0  0  0
    3.7372   -4.5236   -0.4883 H   0  0  0  0  0  0  0  0  0  0  0  0
    2.6097   -5.2202    1.5435 H   0  0  0  0  0  0  0  0  0  0  0  0
    1.2100   -4.1962    1.1645 H   0  0  0  0  0  0  0  0  0  0  0  0
    2.4390   -2.7033    2.5753 H   0  0  0  0  0  0  0  0  0  0  0  0
    4.0037   -3.2837    1.9605 H   0  0  0  0  0  0  0  0  0  0  0  0
    0.5407    1.3487    0.5023 H   0  0  0  0  0  0  0  0  0  0  0  0
   -2.2972    3.7221    0.0802 H   0  0  0  0  0  0  0  0  0  0  0  0
   -1.3836    5.6922    0.8598 H   0  0  0  0  0  0  0  0  0  0  0  0
   -0.1460    5.6251    2.1070 H   0  0  0  0  0  0  0  0  0  0  0  0
  1  2  1  0
  2  3  2  0
  3  4  1  0
  4  5  2  0
  5  6  1  0
  6  7  1  0
  7  8  2  0
  7  9  1  0
  9 10  1  0
 10 11  1  0
 11 12  1  0
 12 13  1  0
  5 14  1  0
 14 15  2  0
 15 16  1  0
 16 17  1  0
 17 18  2  0
 17 19  1  0
 19 20  1  0
 20 21  3  0
 15  2  1  0
 13  9  1  0
  1 22  1  0
  1 23  1  0
  1 24  1  0
  3 25  1  0
  4 26  1  0
  6 27  1  0
  9 28  1  0
 10 29  1  0
 10 30  1  0
 11 31  1  0
 11 32  1  0
 12 33  1  0
 12 34  1  0
 14 35  1  0
 16 36  1  0
 19 37  1  0
 19 38  1  0
M  END
