LIG
     RDKit          3D

 28 28  0  0  0  0  0  0  0  0999 V2000
   32.9155    9.2800    6.1980 C   0  0  0  0  0  0  0  0  0  0  0  0
   33.1770   10.6185    5.9652 C   0  0  0  0  0  0  0  0  0  0  0  0
   32.5049   11.5833    6.7158 C   0  0  0  0  0  0  0  0  0  0  0  0
   33.0359   12.8933    6.6554 N   0  0  0  0  0  0  0  0  0  0  0  0
   33.7868   13.3476    7.7446 C   0  0  0  0  0  0  0  0  0  0  0  0
   33.7017   12.9138    8.8940 O   0  0  0  0  0  0  0  0  0  0  0  0
   34.8069   14.4322    7.3628 C   0  0  0  0  0  0  0  0  0  0  0  0
   34.7144   14.8341    6.0002 O   0  0  0  0  0  0  0  0  0  0  0  0
   31.4770   11.1961    7.6053 C   0  0  0  0  0  0  0  0  0  0  0  0
   30.5771   12.0890    8.2173 N   0  0  0  0  0  0  0  0  0  0  0  0
   29.7766   12.8756    7.4041 C   0  0  0  0  0  0  0  0  0  0  0  0
   29.9591   13.0849    6.2065 O   0  0  0  0  0  0  0  0  0  0  0  0
   28.5556   13.3972    8.1048 C   0  0  0  0  0  0  0  0  0  0  0  0
   28.5604   14.8453    8.0999 C   0  0  0  0  0  0  0  0  0  0  0  0
   28.5295   15.9994    8.1719 N   0  0  0  0  0  0  0  0  0  0  0  0
   31.2428    9.8532    7.8596 C   0  0  0  0  0  0  0  0  0  0  0  0
   31.9773    8.9214    7.1651 C   0  0  0  0  0  0  0  0  0  0  0  0
   31.7913    7.6412    7.4562 F   0  0  0  0  0  0  0  0  0  0  0  0
   33.4817    8.5171    5.6779 H   0  0  0  0  0  0  0  0  0  0  0  0
   33.9715   10.8940    5.2769 H   0  0  0  0  0  0  0  0  0  0  0  0
   33.5192   13.1485    5.7943 H   0  0  0  0  0  0  0  0  0  0  0  0
   34.6264   15.2924    8.0082 H   0  0  0  0  0  0  0  0  0  0  0  0
   35.8129   14.0428    7.5399 H   0  0  0  0  0  0  0  0  0  0  0  0
   34.9936   15.7771    5.9565 H   0  0  0  0  0  0  0  0  0  0  0  0
   30.1198   11.7341    9.0587 H   0  0  0  0  0  0  0  0  0  0  0  0
   28.4937   13.0356    9.1335 H   0  0  0  0  0  0  0  0  0  0  0  0
   27.6809   13.0049    7.5756 H   0  0  0  0  0  0  0  0  0  0  0  0
   30.4902    9.5040    8.5582 H   0  0  0  0  0  0  0  0  0  0  0  0
  1  2  2  0
  2  3  1  0
  3  4  1  0
  4  5  1  0
  5  6  2  0
  5  7  1  0
  7  8  1  0
  3  9  2  0
  9 10  1  0
 10 11  1  0
 11 12  2  0
 11 13  1  0
 13 14  1  0
 14 15  3  0
  9 16  1  0
 16 17  2  0
 17 18  1  0
 17  1  1  0
  1 19  1  0
  2 20  1  0
  4 21  1  0
  7 22  1  0
  7 23  1  0
  8 24  1  0
 10 25  1  0
 13 26  1  0
 13 27  1  0
 16 28  1  0
M  END
