LIG
     RDKit          3D

 40 41  0  0  0  0  0  0  0  0999 V2000
   30.7142    8.1665    8.1215 C   0  0  0  0  0  0  0  0  0  0  0  0
   31.3401    9.3784    7.5421 C   0  0  0  0  0  0  0  0  0  0  0  0
   31.0479   10.5471    8.1674 C   0  0  0  0  0  0  0  0  0  0  0  0
   31.7723   11.6538    7.8068 C   0  0  0  0  0  0  0  0  0  0  0  0
   31.4924   12.7685    8.5276 O   0  0  0  0  0  0  0  0  0  0  0  0
   30.4753   13.4852    7.9039 C   0  0  0  0  0  0  0  0  0  0  0  0
   29.1144   12.8222    7.6997 C   0  0  0  0  0  0  0  0  0  0  0  0
   28.2381   14.0243    7.5302 C   0  0  0  0  0  0  0  0  0  0  0  0
   28.7751   14.9281    8.5099 N   0  0  0  0  0  0  0  0  0  0  0  0
   28.3921   16.2835    8.4525 C   0  0  0  0  0  0  0  0  0  0  0  0
   30.1090   14.6453    8.7970 C   0  0  0  0  0  0  0  0  0  0  0  0
   30.8390   15.2922    9.5351 O   0  0  0  0  0  0  0  0  0  0  0  0
   32.7882   11.5947    6.8563 C   0  0  0  0  0  0  0  0  0  0  0  0
   33.6528   12.6883    6.6454 N   0  0  0  0  0  0  0  0  0  0  0  0
   34.2496   13.3620    7.7081 C   0  0  0  0  0  0  0  0  0  0  0  0
   34.0907   13.0802    8.8979 O   0  0  0  0  0  0  0  0  0  0  0  0
   35.1626   14.5059    7.3183 C   0  0  0  0  0  0  0  0  0  0  0  0
   35.4769   14.6171    5.5360 S   0  0  0  0  0  0  0  0  0  0  0  0
   32.9374   10.3888    6.1768 C   0  0  0  0  0  0  0  0  0  0  0  0
   33.9610   10.1938    5.0998 C   0  0  0  0  0  0  0  0  0  0  0  0
   32.2172    9.2878    6.5131 N   0  0  0  0  0  0  0  0  0  0  0  0
   29.6230    8.2167    8.0871 H   0  0  0  0  0  0  0  0  0  0  0  0
   31.0765    7.3300    7.5450 H   0  0  0  0  0  0  0  0  0  0  0  0
   31.0252    8.0435    9.1633 H   0  0  0  0  0  0  0  0  0  0  0  0
   30.3340   10.5734    8.9798 H   0  0  0  0  0  0  0  0  0  0  0  0
   30.8363   13.8740    6.9473 H   0  0  0  0  0  0  0  0  0  0  0  0
   29.0769   12.1562    6.8340 H   0  0  0  0  0  0  0  0  0  0  0  0
   28.8217   12.2616    8.5889 H   0  0  0  0  0  0  0  0  0  0  0  0
   27.1863   13.8301    7.7192 H   0  0  0  0  0  0  0  0  0  0  0  0
   28.3591   14.4495    6.5268 H   0  0  0  0  0  0  0  0  0  0  0  0
   29.1496   16.9458    8.8406 H   0  0  0  0  0  0  0  0  0  0  0  0
   28.3354   16.5486    7.4001 H   0  0  0  0  0  0  0  0  0  0  0  0
   27.4510   16.3654    8.9924 H   0  0  0  0  0  0  0  0  0  0  0  0
   34.2525   12.6727    5.8247 H   0  0  0  0  0  0  0  0  0  0  0  0
   36.1149   14.3708    7.8364 H   0  0  0  0  0  0  0  0  0  0  0  0
   34.6964   15.4293    7.6556 H   0  0  0  0  0  0  0  0  0  0  0  0
   35.6338   15.9577    5.4952 H   0  0  0  0  0  0  0  0  0  0  0  0
   33.7280   10.8337    4.2430 H   0  0  0  0  0  0  0  0  0  0  0  0
   34.9647   10.4314    5.4606 H   0  0  0  0  0  0  0  0  0  0  0  0
   33.9678    9.1556    4.7519 H   0  0  0  0  0  0  0  0  0  0  0  0
  1  2  1  0
  2  3  2  0
  3  4  1  0
  4  5  1  0
  5  6  1  0
  6  7  1  0
  7  8  1  0
  8  9  1  0
  9 10  1  0
  9 11  1  0
 11 12  2  0
  4 13  2  0
 13 14  1  0
 14 15  1  0
 15 16  2  0
 15 17  1  0
 17 18  1  0
 13 19  1  0
 19 20  1  0
 19 21  2  0
 21  2  1  0
 11  6  1  0
  1 22  1  0
  1 23  1  0
  1 24  1  0
  3 25  1  0
  6 26  1  0
  7 27  1  0
  7 28  1  0
  8 29  1  0
  8 30  1  0
 10 31  1  0
 10 32  1  0
 10 33  1  0
 14 34  1  0
 17 35  1  0
 17 36  1  0
 18 37  1  0
 20 38  1  0
 20 39  1  0
 20 40  1  0
M  END
