LIG
     RDKit          3D

 41 42  0  0  0  0  0  0  0  0999 V2000
   28.8114   14.7516   11.3551 C   0  0  0  0  0  0  0  0  0  0  0  0
   30.0540   14.9781   10.6468 N   0  0  0  0  0  0  0  0  0  0  0  0
   31.0408   15.7944   11.3272 C   0  0  0  0  0  0  0  0  0  0  0  0
   30.5194   14.0044    9.7658 C   0  0  0  0  0  0  0  0  0  0  0  0
   31.7282   13.8657    9.5534 O   0  0  0  0  0  0  0  0  0  0  0  0
   29.4592   13.1883    9.0079 C   0  0  0  0  0  0  0  0  0  0  0  0
   29.9928   11.9450    8.4832 O   0  0  0  0  0  0  0  0  0  0  0  0
   30.4276   12.1217    7.2022 C   0  0  0  0  0  0  0  0  0  0  0  0
   29.5383   12.7075    6.3119 C   0  0  0  0  0  0  0  0  0  0  0  0
   30.0284   13.3729    5.2177 C   0  0  0  0  0  0  0  0  0  0  0  0
   31.3822   13.2921    4.9435 C   0  0  0  0  0  0  0  0  0  0  0  0
   32.2398   12.4840    5.7150 C   0  0  0  0  0  0  0  0  0  0  0  0
   33.5653   12.3544    5.2727 N   0  0  0  0  0  0  0  0  0  0  0  0
   34.1722   13.4860    4.7666 C   0  0  0  0  0  0  0  0  0  0  0  0
   33.9029   14.6125    5.1858 O   0  0  0  0  0  0  0  0  0  0  0  0
   35.1100   13.2885    3.5774 C   0  0  0  0  0  0  0  0  0  0  0  0
   34.8193   14.3905    2.5490 C   0  0  0  0  0  0  0  0  0  0  0  0
   34.9436   13.6882    1.2246 C   0  0  0  0  0  0  0  0  0  0  0  0
   34.4633   12.3032    1.5700 C   0  0  0  0  0  0  0  0  0  0  0  0
   34.9418   12.0383    2.8932 O   0  0  0  0  0  0  0  0  0  0  0  0
   31.7558   11.8611    6.8539 C   0  0  0  0  0  0  0  0  0  0  0  0
   28.8088   13.7551   11.7878 H   0  0  0  0  0  0  0  0  0  0  0  0
   28.7177   15.4535   12.1833 H   0  0  0  0  0  0  0  0  0  0  0  0
   27.9751   14.8465   10.6596 H   0  0  0  0  0  0  0  0  0  0  0  0
   31.4141   15.2460   12.1835 H   0  0  0  0  0  0  0  0  0  0  0  0
   31.8815   16.0199   10.6682 H   0  0  0  0  0  0  0  0  0  0  0  0
   30.6089   16.7346   11.6696 H   0  0  0  0  0  0  0  0  0  0  0  0
   29.0695   13.8843    8.2549 H   0  0  0  0  0  0  0  0  0  0  0  0
   28.5807   12.9471    9.6054 H   0  0  0  0  0  0  0  0  0  0  0  0
   28.4775   12.7744    6.5429 H   0  0  0  0  0  0  0  0  0  0  0  0
   29.3603   13.9401    4.5767 H   0  0  0  0  0  0  0  0  0  0  0  0
   31.7456   13.8009    4.0545 H   0  0  0  0  0  0  0  0  0  0  0  0
   34.1736   11.6432    5.6606 H   0  0  0  0  0  0  0  0  0  0  0  0
   36.1422   13.3396    3.9392 H   0  0  0  0  0  0  0  0  0  0  0  0
   33.8022   14.7894    2.6510 H   0  0  0  0  0  0  0  0  0  0  0  0
   35.5083   15.2355    2.6470 H   0  0  0  0  0  0  0  0  0  0  0  0
   35.9974   13.6552    0.9244 H   0  0  0  0  0  0  0  0  0  0  0  0
   34.3696   14.1567    0.4212 H   0  0  0  0  0  0  0  0  0  0  0  0
   34.8394   11.5408    0.8825 H   0  0  0  0  0  0  0  0  0  0  0  0
   33.3688   12.2509    1.5873 H   0  0  0  0  0  0  0  0  0  0  0  0
   32.4048   11.3286    7.5336 H   0  0  0  0  0  0  0  0  0  0  0  0
  1  2  1  0
  2  3  1  0
  2  4  1  0
  4  5  2  0
  4  6  1  0
  6  7  1  0
  7  8  1  0
  8  9  2  0
  9 10  1  0
 10 11  2  0
 11 12  1  0
 12 13  1  0
 13 14  1  0
 14 15  2  0
 14 16  1  0
 16 17  1  0
 17 18  1  0
 18 19  1  0
 19 20  1  0
 12 21  2  0
 21  8  1  0
 20 16  1  0
  1 22  1  0
  1 23  1  0
  1 24  1  0
  3 25  1  0
  3 26  1  0
  3 27  1  0
  6 28  1  0
  6 29  1  0
  9 30  1  0
 10 31  1  0
 11 32  1  0
 13 33  1  0
 16 34  1  0
 17 35  1  0
 17 36  1  0
 18 37  1  0
 18 38  1  0
 19 39  1  0
 19 40  1  0
 21 41  1  0
M  END
