LIG
     RDKit          3D

 37 38  0  0  0  0  0  0  0  0999 V2000
   35.1797    8.5939    3.7899 C   0  0  0  0  0  0  0  0  0  0  0  0
   35.3641   10.0501    4.0654 C   0  0  0  0  0  0  0  0  0  0  0  0
   36.3439   10.6749    3.6558 O   0  0  0  0  0  0  0  0  0  0  0  0
   34.4268   10.7355    4.7443 N   0  0  0  0  0  0  0  0  0  0  0  0
   33.4066   10.3507    5.6059 C   0  0  0  0  0  0  0  0  0  0  0  0
   33.1591    9.1308    6.1858 C   0  0  0  0  0  0  0  0  0  0  0  0
   32.2027    8.9080    7.1137 N   0  0  0  0  0  0  0  0  0  0  0  0
   31.5290    9.9855    7.5609 C   0  0  0  0  0  0  0  0  0  0  0  0
   31.7457   11.2499    7.0593 C   0  0  0  0  0  0  0  0  0  0  0  0
   31.1467   12.3190    7.6180 O   0  0  0  0  0  0  0  0  0  0  0  0
   31.7421   13.5656    7.2964 C   0  0  0  0  0  0  0  0  0  0  0  0
   33.1878   13.7584    7.7894 C   0  0  0  0  0  0  0  0  0  0  0  0
   33.3653   13.6996    9.0099 O   0  0  0  0  0  0  0  0  0  0  0  0
   34.2582   13.9235    6.9032 N   0  0  0  0  0  0  0  0  0  0  0  0
   35.5695   14.0432    7.5411 C   0  0  0  0  0  0  0  0  0  0  0  0
   36.6699   13.6463    6.5615 C   0  0  0  0  0  0  0  0  0  0  0  0
   36.6846   14.5506    5.4494 O   0  0  0  0  0  0  0  0  0  0  0  0
   35.4547   14.4468    4.7250 C   0  0  0  0  0  0  0  0  0  0  0  0
   34.2190   14.6414    5.6233 C   0  0  0  0  0  0  0  0  0  0  0  0
   32.6107   11.3865    6.0022 C   0  0  0  0  0  0  0  0  0  0  0  0
   34.1318    8.3561    3.5978 H   0  0  0  0  0  0  0  0  0  0  0  0
   35.7398    8.3318    2.8866 H   0  0  0  0  0  0  0  0  0  0  0  0
   35.5705    8.0033    4.6205 H   0  0  0  0  0  0  0  0  0  0  0  0
   34.6539   11.7195    4.7471 H   0  0  0  0  0  0  0  0  0  0  0  0
   33.7834    8.2816    5.9795 H   0  0  0  0  0  0  0  0  0  0  0  0
   30.8177    9.8020    8.3627 H   0  0  0  0  0  0  0  0  0  0  0  0
   31.5927   13.8077    6.2426 H   0  0  0  0  0  0  0  0  0  0  0  0
   31.1454   14.2810    7.8712 H   0  0  0  0  0  0  0  0  0  0  0  0
   35.6797   15.0866    7.8493 H   0  0  0  0  0  0  0  0  0  0  0  0
   35.6261   13.4298    8.4434 H   0  0  0  0  0  0  0  0  0  0  0  0
   36.5273   12.6290    6.1807 H   0  0  0  0  0  0  0  0  0  0  0  0
   37.6508   13.6700    7.0435 H   0  0  0  0  0  0  0  0  0  0  0  0
   35.4628   15.2098    3.9397 H   0  0  0  0  0  0  0  0  0  0  0  0
   35.4307   13.4779    4.2218 H   0  0  0  0  0  0  0  0  0  0  0  0
   34.2231   15.6818    5.9205 H   0  0  0  0  0  0  0  0  0  0  0  0
   33.2967   14.4389    5.0773 H   0  0  0  0  0  0  0  0  0  0  0  0
   32.7202   12.3186    5.4725 H   0  0  0  0  0  0  0  0  0  0  0  0
  1  2  1  0
  2  3  2  0
  2  4  1  0
  4  5  1  0
  5  6  2  0
  6  7  1  0
  7  8  2  0
  8  9  1  0
  9 10  1  0
 10 11  1  0
 11 12  1  0
 12 13  2  0
 12 14  1  0
 14 15  1  0
 15 16  1  0
 16 17  1  0
 17 18  1  0
 18 19  1  0
  9 20  2  0
 20  5  1  0
 19 14  1  0
  1 21  1  0
  1 22  1  0
  1 23  1  0
  4 24  1  0
  6 25  1  0
  8 26  1  0
 11 27  1  0
 11 28  1  0
 15 29  1  0
 15 30  1  0
 16 31  1  0
 16 32  1  0
 18 33  1  0
 18 34  1  0
 19 35  1  0
 19 36  1  0
 20 37  1  0
M  END
