LIG
     RDKit          3D

 37 37  0  0  0  0  0  0  0  0999 V2000
   31.2417    8.2893    5.3904 C   0  0  0  0  0  0  0  0  0  0  0  0
   32.1179    9.4577    5.6755 C   0  0  0  0  0  0  0  0  0  0  0  0
   33.3706    9.5605    5.0721 C   0  0  0  0  0  0  0  0  0  0  0  0
   34.1607   10.6943    5.2687 C   0  0  0  0  0  0  0  0  0  0  0  0
   33.6940   11.7383    6.0598 C   0  0  0  0  0  0  0  0  0  0  0  0
   34.5188   12.8371    6.3044 N   0  0  0  0  0  0  0  0  0  0  0  0
   34.4888   13.6008    7.4599 C   0  0  0  0  0  0  0  0  0  0  0  0
   33.8878   13.3176    8.4902 O   0  0  0  0  0  0  0  0  0  0  0  0
   35.3336   14.8563    7.3581 C   0  0  0  0  0  0  0  0  0  0  0  0
   35.2552   15.3428    6.0159 O   0  0  0  0  0  0  0  0  0  0  0  0
   35.1778   16.7576    5.9566 C   0  0  0  0  0  0  0  0  0  0  0  0
   36.4730   17.4987    6.3272 C   0  0  0  0  0  0  0  0  0  0  0  0
   37.4747   16.8800    6.6931 O   0  0  0  0  0  0  0  0  0  0  0  0
   36.4553   18.8885    6.2253 N   0  0  0  0  0  0  0  0  0  0  0  0
   37.7071   19.6040    6.4055 C   0  0  0  0  0  0  0  0  0  0  0  0
   35.3572   19.6529    5.6540 C   0  0  0  0  0  0  0  0  0  0  0  0
   32.4159   11.6791    6.5857 C   0  0  0  0  0  0  0  0  0  0  0  0
   31.6769   10.5147    6.4506 C   0  0  0  0  0  0  0  0  0  0  0  0
   30.5331   10.3650    7.1576 O   0  0  0  0  0  0  0  0  0  0  0  0
   30.6098    8.0125    6.2230 H   0  0  0  0  0  0  0  0  0  0  0  0
   31.8462    7.4289    5.1034 H   0  0  0  0  0  0  0  0  0  0  0  0
   30.6148    8.5256    4.5273 H   0  0  0  0  0  0  0  0  0  0  0  0
   33.7515    8.7544    4.4496 H   0  0  0  0  0  0  0  0  0  0  0  0
   35.1510   10.7333    4.8238 H   0  0  0  0  0  0  0  0  0  0  0  0
   35.3103   13.0024    5.6933 H   0  0  0  0  0  0  0  0  0  0  0  0
   36.3710   14.6048    7.5967 H   0  0  0  0  0  0  0  0  0  0  0  0
   34.9486   15.5846    8.0810 H   0  0  0  0  0  0  0  0  0  0  0  0
   34.9428   17.0069    4.9164 H   0  0  0  0  0  0  0  0  0  0  0  0
   34.3539   17.1068    6.5887 H   0  0  0  0  0  0  0  0  0  0  0  0
   37.5169   20.5243    6.9657 H   0  0  0  0  0  0  0  0  0  0  0  0
   38.4451   19.0111    6.9520 H   0  0  0  0  0  0  0  0  0  0  0  0
   38.1119   19.8522    5.4198 H   0  0  0  0  0  0  0  0  0  0  0  0
   35.5601   19.8084    4.5903 H   0  0  0  0  0  0  0  0  0  0  0  0
   34.3988   19.1438    5.7624 H   0  0  0  0  0  0  0  0  0  0  0  0
   35.2901   20.6209    6.1595 H   0  0  0  0  0  0  0  0  0  0  0  0
   32.0171   12.5316    7.1255 H   0  0  0  0  0  0  0  0  0  0  0  0
   30.5165   11.0853    7.8028 H   0  0  0  0  0  0  0  0  0  0  0  0
  1  2  1  0
  2  3  2  0
  3  4  1  0
  4  5  2  0
  5  6  1  0
  6  7  1  0
  7  8  2  0
  7  9  1  0
  9 10  1  0
 10 11  1  0
 11 12  1  0
 12 13  2  0
 12 14  1  0
 14 15  1  0
 14 16  1  0
  5 17  1  0
 17 18  2  0
 18 19  1  0
 18  2  1  0
  1 20  1  0
  1 21  1  0
  1 22  1  0
  3 23  1  0
  4 24  1  0
  6 25  1  0
  9 26  1  0
  9 27  1  0
 11 28  1  0
 11 29  1  0
 15 30  1  0
 15 31  1  0
 15 32  1  0
 16 33  1  0
 16 34  1  0
 16 35  1  0
 17 36  1  0
 19 37  1  0
M  END
