LIG
     RDKit          3D

 27 27  0  0  0  0  0  0  0  0999 V2000
    1.6513   -0.0567    3.1906 C   0  0  0  0  0  0  0  0  0  0  0  0
    1.8043    0.7579    1.9299 C   0  0  0  0  0  0  0  0  0  0  0  0
    2.6483    1.6435    1.8528 O   0  0  0  0  0  0  0  0  0  0  0  0
    0.9020    0.3733    0.9577 N   0  0  0  0  0  0  0  0  0  0  0  0
    0.7218    0.8771   -0.3473 C   0  0  0  0  0  0  0  0  0  0  0  0
    1.5383    1.9187   -0.8297 C   0  0  0  0  0  0  0  0  0  0  0  0
    1.3930    2.4405   -2.1195 C   0  0  0  0  0  0  0  0  0  0  0  0
    0.4219    1.9287   -2.9617 C   0  0  0  0  0  0  0  0  0  0  0  0
   -0.3895    0.9021   -2.4988 C   0  0  0  0  0  0  0  0  0  0  0  0
   -1.3306    0.4134   -3.3264 F   0  0  0  0  0  0  0  0  0  0  0  0
   -0.2725    0.3521   -1.2036 C   0  0  0  0  0  0  0  0  0  0  0  0
   -1.2150   -0.6885   -0.9575 N   0  0  0  0  0  0  0  0  0  0  0  0
   -1.4532   -1.4687    0.1491 C   0  0  0  0  0  0  0  0  0  0  0  0
   -0.8659   -1.4134    1.2275 O   0  0  0  0  0  0  0  0  0  0  0  0
   -2.5970   -2.4704   -0.0558 C   0  0  0  0  0  0  0  0  0  0  0  0
   -2.6303   -3.4676    0.9521 O   0  0  0  0  0  0  0  0  0  0  0  0
    0.6648    0.1198    3.6283 H   0  0  0  0  0  0  0  0  0  0  0  0
    1.7751   -1.1200    2.9666 H   0  0  0  0  0  0  0  0  0  0  0  0
    2.4164    0.2387    3.9142 H   0  0  0  0  0  0  0  0  0  0  0  0
    0.2729   -0.3808    1.2275 H   0  0  0  0  0  0  0  0  0  0  0  0
    2.3186    2.3583   -0.2145 H   0  0  0  0  0  0  0  0  0  0  0  0
    2.0447    3.2447   -2.4530 H   0  0  0  0  0  0  0  0  0  0  0  0
    0.2905    2.3164   -3.9663 H   0  0  0  0  0  0  0  0  0  0  0  0
   -1.8114   -0.8717   -1.7623 H   0  0  0  0  0  0  0  0  0  0  0  0
   -2.4861   -2.9686   -1.0233 H   0  0  0  0  0  0  0  0  0  0  0  0
   -3.5452   -1.9250   -0.0365 H   0  0  0  0  0  0  0  0  0  0  0  0
   -2.2670   -3.0541    1.7600 H   0  0  0  0  0  0  0  0  0  0  0  0
  1  2  1  0
  2  3  2  0
  2  4  1  0
  4  5  1  0
  5  6  2  0
  6  7  1  0
  7  8  2  0
  8  9  1  0
  9 10  1  0
  9 11  2  0
 11 12  1  0
 12 13  1  0
 13 14  2  0
 13 15  1  0
 15 16  1  0
 11  5  1  0
  1 17  1  0
  1 18  1  0
  1 19  1  0
  4 20  1  0
  6 21  1  0
  7 22  1  0
  8 23  1  0
 12 24  1  0
 15 25  1  0
 15 26  1  0
 16 27  1  0
M  END
