LIG
     RDKit          3D

 41 41  0  0  0  0  0  0  0  0999 V2000
   29.2206   14.5107    8.7522 C   0  0  0  0  0  0  0  0  0  0  0  0
   29.6171   13.3346    7.9045 C   0  0  0  0  0  0  0  0  0  0  0  0
   28.7823   12.7563    7.2110 O   0  0  0  0  0  0  0  0  0  0  0  0
   30.9645   13.0315    7.9495 N   0  0  0  0  0  0  0  0  0  0  0  0
   31.5018   11.8170    7.4723 C   0  0  0  0  0  0  0  0  0  0  0  0
   30.8322   10.6241    7.7398 C   0  0  0  0  0  0  0  0  0  0  0  0
   31.3574    9.4095    7.3100 C   0  0  0  0  0  0  0  0  0  0  0  0
   32.4936    9.3848    6.5041 C   0  0  0  0  0  0  0  0  0  0  0  0
   33.1590   10.5662    6.1989 C   0  0  0  0  0  0  0  0  0  0  0  0
   34.3315   10.5923    5.4842 O   0  0  0  0  0  0  0  0  0  0  0  0
   34.3441    9.8353    4.2812 C   0  0  0  0  0  0  0  0  0  0  0  0
   34.9551    8.4289    4.3468 C   0  0  0  0  0  0  0  0  0  0  0  0
   35.5069    8.0249    5.3672 O   0  0  0  0  0  0  0  0  0  0  0  0
   34.9110    7.6480    3.1932 N   0  0  0  0  0  0  0  0  0  0  0  0
   34.2023    8.0297    1.9858 C   0  0  0  0  0  0  0  0  0  0  0  0
   35.4570    6.3025    3.2750 C   0  0  0  0  0  0  0  0  0  0  0  0
   32.7236   11.7720    6.7776 C   0  0  0  0  0  0  0  0  0  0  0  0
   33.5650   12.9002    6.6273 N   0  0  0  0  0  0  0  0  0  0  0  0
   34.0832   13.5321    7.7517 C   0  0  0  0  0  0  0  0  0  0  0  0
   33.6767   13.3754    8.8996 O   0  0  0  0  0  0  0  0  0  0  0  0
   35.2311   14.4648    7.3972 C   0  0  0  0  0  0  0  0  0  0  0  0
   36.0184   13.8730    6.3681 O   0  0  0  0  0  0  0  0  0  0  0  0
   28.9157   15.3364    8.1040 H   0  0  0  0  0  0  0  0  0  0  0  0
   28.3862   14.2214    9.3971 H   0  0  0  0  0  0  0  0  0  0  0  0
   30.0455   14.8429    9.3887 H   0  0  0  0  0  0  0  0  0  0  0  0
   31.6285   13.7738    8.1304 H   0  0  0  0  0  0  0  0  0  0  0  0
   29.9234   10.6197    8.3354 H   0  0  0  0  0  0  0  0  0  0  0  0
   30.8649    8.4818    7.5980 H   0  0  0  0  0  0  0  0  0  0  0  0
   32.8946    8.4280    6.1970 H   0  0  0  0  0  0  0  0  0  0  0  0
   33.3550    9.8097    3.8318 H   0  0  0  0  0  0  0  0  0  0  0  0
   34.9797   10.4031    3.5907 H   0  0  0  0  0  0  0  0  0  0  0  0
   33.1284    7.9274    2.1423 H   0  0  0  0  0  0  0  0  0  0  0  0
   34.5179    7.4063    1.1447 H   0  0  0  0  0  0  0  0  0  0  0  0
   34.4176    9.0734    1.7418 H   0  0  0  0  0  0  0  0  0  0  0  0
   36.2129    6.2164    4.0607 H   0  0  0  0  0  0  0  0  0  0  0  0
   35.9284    6.0442    2.3223 H   0  0  0  0  0  0  0  0  0  0  0  0
   34.6535    5.6036    3.4892 H   0  0  0  0  0  0  0  0  0  0  0  0
   34.2988   12.7822    5.9261 H   0  0  0  0  0  0  0  0  0  0  0  0
   35.8615   14.6275    8.2737 H   0  0  0  0  0  0  0  0  0  0  0  0
   34.8367   15.4143    7.0352 H   0  0  0  0  0  0  0  0  0  0  0  0
   36.3987   13.0627    6.7698 H   0  0  0  0  0  0  0  0  0  0  0  0
  1  2  1  0
  2  3  2  0
  2  4  1  0
  4  5  1  0
  5  6  2  0
  6  7  1  0
  7  8  2  0
  8  9  1  0
  9 10  1  0
 10 11  1  0
 11 12  1  0
 12 13  2  0
 12 14  1  0
 14 15  1  0
 14 16  1  0
  9 17  2  0
 17 18  1  0
 18 19  1  0
 19 20  2  0
 19 21  1  0
 21 22  1  0
 17  5  1  0
  1 23  1  0
  1 24  1  0
  1 25  1  0
  4 26  1  0
  6 27  1  0
  7 28  1  0
  8 29  1  0
 11 30  1  0
 11 31  1  0
 15 32  1  0
 15 33  1  0
 15 34  1  0
 16 35  1  0
 16 36  1  0
 16 37  1  0
 18 38  1  0
 21 39  1  0
 21 40  1  0
 22 41  1  0
M  END
