LIG
     RDKit          3D

 28 28  0  0  0  0  0  0  0  0999 V2000
   34.1980   10.0910    5.5530 C   0  0  0  0  0  0  0  0  0  0  0  0
   33.0110   10.3720    6.4380 N   0  0  0  0  0  0  0  0  0  0  0  0
   32.1560    9.3390    6.8090 N   0  0  0  0  0  0  0  0  0  0  0  0
   31.0170    9.5590    7.5720 C   0  0  0  0  0  0  0  0  0  0  0  0
   30.7220   10.8640    7.9390 C   0  0  0  0  0  0  0  0  0  0  0  0
   31.5450   11.9340    7.6020 N   0  0  0  0  0  0  0  0  0  0  0  0
   31.1650   13.3330    8.0150 C   0  0  0  0  0  0  0  0  0  0  0  0
   29.9180   12.6920    6.3980 O   0  0  0  0  0  0  0  0  0  0  0  0
   28.7130   13.3600    8.3510 C   0  0  0  0  0  0  0  0  0  0  0  0
   28.5830   14.6820    7.7450 C   0  0  0  0  0  0  0  0  0  0  0  0
   28.5580   15.7160    7.2730 N   0  0  0  0  0  0  0  0  0  0  0  0
   32.7080   11.6650    6.8730 C   0  0  0  0  0  0  0  0  0  0  0  0
   33.6520   12.7090    6.6590 N   0  0  0  0  0  0  0  0  0  0  0  0
   34.4250   13.2280    7.6390 C   0  0  0  0  0  0  0  0  0  0  0  0
   34.9120   12.5690    8.5560 O   0  0  0  0  0  0  0  0  0  0  0  0
   34.6680   14.7180    7.5670 C   0  0  0  0  0  0  0  0  0  0  0  0
   35.0470   15.1300    6.2680 O   0  0  0  0  0  0  0  0  0  0  0  0
   35.0884   10.1784    6.1668 H   0  0  0  0  0  0  0  0  0  0  0  0
   34.0856    9.0789    5.1864 H   0  0  0  0  0  0  0  0  0  0  0  0
   34.7045    9.2157    5.9367 H   0  0  0  0  0  0  0  0  0  0  0  0
   30.4456    8.6288    7.8054 H   0  0  0  0  0  0  0  0  0  0  0  0
   32.3591   11.7991    7.1135 H   0  0  0  0  0  0  0  0  0  0  0  0
   28.7485   12.5327    7.7532 H   0  0  0  0  0  0  0  0  0  0  0  0
   28.9699   13.3006    9.3372 H   0  0  0  0  0  0  0  0  0  0  0  0
   33.8878   12.9008    5.7045 H   0  0  0  0  0  0  0  0  0  0  0  0
   33.7629   15.2698    7.8435 H   0  0  0  0  0  0  0  0  0  0  0  0
   35.4738   14.9814    8.2610 H   0  0  0  0  0  0  0  0  0  0  0  0
   34.7785   16.0683    6.1876 H   0  0  0  0  0  0  0  0  0  0  0  0
  1  2  1  0
  2  3  4  0
  3  4  4  0
  4  5  4  0
  5  6  1  0
  6  7  1  0
  7  8  2  0
  7  9  1  0
  9 10  1  0
 10 11  3  0
  5 12  4  0
 12 13  1  0
 13 14  1  0
 14 15  2  0
 14 16  1  0
 16 17  1  0
 12  2  4  0
  1 18  1  0
  1 19  1  0
  1 20  1  0
  4 21  1  0
  6 22  1  0
  9 23  1  0
  9 24  1  0
 13 25  1  0
 16 26  1  0
 16 27  1  0
 17 28  1  0
M  END
$$$$
