LIG
     RDKit          3D

 38 39  0  0  0  0  0  0  0  0999 V2000
    7.0209   -0.5643   -1.0126 C   0  0  0  0  0  0  0  0  0  0  0  0
    5.5156   -0.5408   -0.9175 C   0  0  0  0  0  0  0  0  0  0  0  0
    4.8332   -1.2983   -1.5969 O   0  0  0  0  0  0  0  0  0  0  0  0
    5.0606    0.3756    0.0086 N   0  0  0  0  0  0  0  0  0  0  0  0
    3.7217    0.6597    0.3576 C   0  0  0  0  0  0  0  0  0  0  0  0
    2.6034    0.0474   -0.2106 C   0  0  0  0  0  0  0  0  0  0  0  0
    1.3068    0.3965    0.2004 C   0  0  0  0  0  0  0  0  0  0  0  0
    0.3067   -0.2820   -0.4410 O   0  0  0  0  0  0  0  0  0  0  0  0
   -1.0332    0.0187   -0.0739 C   0  0  0  0  0  0  0  0  0  0  0  0
   -2.0421   -0.8196   -0.8737 C   0  0  0  0  0  0  0  0  0  0  0  0
   -1.6850   -1.6178   -1.7413 O   0  0  0  0  0  0  0  0  0  0  0  0
   -3.3926   -0.6488   -0.5536 N   0  0  0  0  0  0  0  0  0  0  0  0
   -3.9113    0.5051    0.1883 C   0  0  0  0  0  0  0  0  0  0  0  0
   -5.2726    0.2072    0.8249 C   0  0  0  0  0  0  0  0  0  0  0  0
   -6.2011   -0.2903   -0.1460 O   0  0  0  0  0  0  0  0  0  0  0  0
   -5.7153   -1.5154   -0.7149 C   0  0  0  0  0  0  0  0  0  0  0  0
   -4.3763   -1.3019   -1.4238 C   0  0  0  0  0  0  0  0  0  0  0  0
    1.1287    1.3675    1.1892 C   0  0  0  0  0  0  0  0  0  0  0  0
    2.2395    1.9863    1.7633 C   0  0  0  0  0  0  0  0  0  0  0  0
    3.5168    1.6297    1.3450 C   0  0  0  0  0  0  0  0  0  0  0  0
    4.5755    2.2352    1.9075 F   0  0  0  0  0  0  0  0  0  0  0  0
    7.4437    0.4290   -0.8363 H   0  0  0  0  0  0  0  0  0  0  0  0
    7.3149   -0.8827   -2.0169 H   0  0  0  0  0  0  0  0  0  0  0  0
    7.4180   -1.2673   -0.2758 H   0  0  0  0  0  0  0  0  0  0  0  0
    5.7547    0.9132    0.5178 H   0  0  0  0  0  0  0  0  0  0  0  0
    2.7037   -0.7110   -0.9824 H   0  0  0  0  0  0  0  0  0  0  0  0
   -1.2401    1.0740   -0.2862 H   0  0  0  0  0  0  0  0  0  0  0  0
   -1.1816   -0.2137    0.9871 H   0  0  0  0  0  0  0  0  0  0  0  0
   -4.0075    1.3211   -0.5377 H   0  0  0  0  0  0  0  0  0  0  0  0
   -3.2076    0.8219    0.9617 H   0  0  0  0  0  0  0  0  0  0  0  0
   -5.6924    1.1228    1.2531 H   0  0  0  0  0  0  0  0  0  0  0  0
   -5.1749   -0.5259    1.6346 H   0  0  0  0  0  0  0  0  0  0  0  0
   -5.6243   -2.2654    0.0798 H   0  0  0  0  0  0  0  0  0  0  0  0
   -6.4639   -1.8738   -1.4284 H   0  0  0  0  0  0  0  0  0  0  0  0
   -4.5133   -0.6396   -2.2873 H   0  0  0  0  0  0  0  0  0  0  0  0
   -3.9928   -2.2598   -1.7899 H   0  0  0  0  0  0  0  0  0  0  0  0
    0.1446    1.6648    1.5341 H   0  0  0  0  0  0  0  0  0  0  0  0
    2.1188    2.7427    2.5322 H   0  0  0  0  0  0  0  0  0  0  0  0
  1  2  1  0
  2  3  2  0
  2  4  1  0
  4  5  1  0
  5  6  2  0
  6  7  1  0
  7  8  1  0
  8  9  1  0
  9 10  1  0
 10 11  2  0
 10 12  1  0
 12 13  1  0
 13 14  1  0
 14 15  1  0
 15 16  1  0
 16 17  1  0
  7 18  2  0
 18 19  1  0
 19 20  2  0
 20 21  1  0
 20  5  1  0
 17 12  1  0
  1 22  1  0
  1 23  1  0
  1 24  1  0
  4 25  1  0
  6 26  1  0
  9 27  1  0
  9 28  1  0
 13 29  1  0
 13 30  1  0
 14 31  1  0
 14 32  1  0
 16 33  1  0
 16 34  1  0
 17 35  1  0
 17 36  1  0
 18 37  1  0
 19 38  1  0
M  END
