LIG
     RDKit          3D

 35 36  0  0  0  0  0  0  0  0999 V2000
   28.3599   16.1072    8.6367 C   0  0  0  0  0  0  0  0  0  0  0  0
   28.9647   15.2012    9.5721 N   0  0  0  0  0  0  0  0  0  0  0  0
   28.4828   13.8648    9.5025 C   0  0  0  0  0  0  0  0  0  0  0  0
   29.5594   13.2119    8.7059 C   0  0  0  0  0  0  0  0  0  0  0  0
   30.8560   13.8355    9.2221 C   0  0  0  0  0  0  0  0  0  0  0  0
   31.8153   13.9254    8.1701 O   0  0  0  0  0  0  0  0  0  0  0  0
   33.2011   13.9435    8.5401 C   0  0  0  0  0  0  0  0  0  0  0  0
   34.0738   13.5023    7.3408 C   0  0  0  0  0  0  0  0  0  0  0  0
   35.2967   13.5197    7.3761 O   0  0  0  0  0  0  0  0  0  0  0  0
   33.3111   13.1210    6.2228 N   0  0  0  0  0  0  0  0  0  0  0  0
   32.8365   11.7758    6.2437 C   0  0  0  0  0  0  0  0  0  0  0  0
   33.6462   10.6750    6.0593 C   0  0  0  0  0  0  0  0  0  0  0  0
   33.1421    9.4121    6.3877 C   0  0  0  0  0  0  0  0  0  0  0  0
   31.9174    9.3004    7.0448 C   0  0  0  0  0  0  0  0  0  0  0  0
   31.5123    8.1345    7.5552 F   0  0  0  0  0  0  0  0  0  0  0  0
   31.0886   10.3883    7.1564 C   0  0  0  0  0  0  0  0  0  0  0  0
   31.5055   11.5665    6.5805 C   0  0  0  0  0  0  0  0  0  0  0  0
   30.5820   12.5203    6.2932 O   0  0  0  0  0  0  0  0  0  0  0  0
   30.3506   15.1760    9.6896 C   0  0  0  0  0  0  0  0  0  0  0  0
   31.0926   16.0875   10.0242 O   0  0  0  0  0  0  0  0  0  0  0  0
   28.3941   15.6802    7.6289 H   0  0  0  0  0  0  0  0  0  0  0  0
   27.3264   16.2139    8.9664 H   0  0  0  0  0  0  0  0  0  0  0  0
   28.8675   17.0674    8.5896 H   0  0  0  0  0  0  0  0  0  0  0  0
   28.3634   13.5025   10.5228 H   0  0  0  0  0  0  0  0  0  0  0  0
   27.5352   13.8212    8.9752 H   0  0  0  0  0  0  0  0  0  0  0  0
   29.3694   13.5148    7.6747 H   0  0  0  0  0  0  0  0  0  0  0  0
   29.5400   12.1261    8.7489 H   0  0  0  0  0  0  0  0  0  0  0  0
   31.2455   13.3546   10.1082 H   0  0  0  0  0  0  0  0  0  0  0  0
   33.3860   13.2472    9.3576 H   0  0  0  0  0  0  0  0  0  0  0  0
   33.4854   14.9531    8.8323 H   0  0  0  0  0  0  0  0  0  0  0  0
   32.4921   13.7208    6.3020 H   0  0  0  0  0  0  0  0  0  0  0  0
   34.6672   10.7930    5.7070 H   0  0  0  0  0  0  0  0  0  0  0  0
   33.7553    8.5294    6.2409 H   0  0  0  0  0  0  0  0  0  0  0  0
   30.1133   10.2730    7.6119 H   0  0  0  0  0  0  0  0  0  0  0  0
   30.8766   13.0073    5.5072 H   0  0  0  0  0  0  0  0  0  0  0  0
  1  2  1  0
  2  3  1  0
  3  4  1  0
  4  5  1  0
  5  6  1  0
  6  7  1  0
  7  8  1  0
  8  9  2  0
  8 10  1  0
 10 11  1  0
 11 12  2  0
 12 13  1  0
 13 14  2  0
 14 15  1  0
 14 16  1  0
 16 17  2  0
 17 18  1  0
  5 19  1  0
 19 20  2  0
 19  2  1  0
 17 11  1  0
  1 21  1  0
  1 22  1  0
  1 23  1  0
  3 24  1  0
  3 25  1  0
  4 26  1  0
  4 27  1  0
  5 28  1  0
  7 29  1  0
  7 30  1  0
 10 31  1  0
 12 32  1  0
 13 33  1  0
 16 34  1  0
 18 35  1  0
M  END
