LIG
     RDKit          3D

 38 39  0  0  0  0  0  0  0  0999 V2000
   28.4877   16.0415    7.9332 N   0  0  0  0  0  0  0  0  0  0  0  0
   28.6318   14.9725    8.3486 C   0  0  0  0  0  0  0  0  0  0  0  0
   28.8285   13.6687    8.9486 C   0  0  0  0  0  0  0  0  0  0  0  0
   29.2085   12.6670    7.9062 C   0  0  0  0  0  0  0  0  0  0  0  0
   29.0905   12.8607    6.6972 O   0  0  0  0  0  0  0  0  0  0  0  0
   29.7346   11.5162    8.4605 N   0  0  0  0  0  0  0  0  0  0  0  0
   30.7309   10.7764    7.8386 C   0  0  0  0  0  0  0  0  0  0  0  0
   30.9572    9.4523    8.1259 C   0  0  0  0  0  0  0  0  0  0  0  0
   31.9656    8.8507    7.4035 C   0  0  0  0  0  0  0  0  0  0  0  0
   32.7919    9.4896    6.5337 N   0  0  0  0  0  0  0  0  0  0  0  0
   32.5741   10.7936    6.3292 C   0  0  0  0  0  0  0  0  0  0  0  0
   33.4375   11.4069    5.4717 O   0  0  0  0  0  0  0  0  0  0  0  0
   33.0880   12.7159    5.0275 C   0  0  0  0  0  0  0  0  0  0  0  0
   33.5123   13.7707    6.0449 C   0  0  0  0  0  0  0  0  0  0  0  0
   33.0125   13.8036    7.1763 O   0  0  0  0  0  0  0  0  0  0  0  0
   34.5255   14.6393    5.7006 N   0  0  0  0  0  0  0  0  0  0  0  0
   35.4709   14.8733    6.7844 C   0  0  0  0  0  0  0  0  0  0  0  0
   36.5705   13.8167    6.6353 C   0  0  0  0  0  0  0  0  0  0  0  0
   37.2855   14.0588    5.4053 O   0  0  0  0  0  0  0  0  0  0  0  0
   36.4030   13.8580    4.2839 C   0  0  0  0  0  0  0  0  0  0  0  0
   35.1639   14.7579    4.3810 C   0  0  0  0  0  0  0  0  0  0  0  0
   31.5333   11.4368    6.9333 C   0  0  0  0  0  0  0  0  0  0  0  0
   29.6376   13.7472    9.6825 H   0  0  0  0  0  0  0  0  0  0  0  0
   27.9298   13.3300    9.4620 H   0  0  0  0  0  0  0  0  0  0  0  0
   29.4034   11.2070    9.3723 H   0  0  0  0  0  0  0  0  0  0  0  0
   30.3499    8.8778    8.8125 H   0  0  0  0  0  0  0  0  0  0  0  0
   32.1539    7.7924    7.5174 H   0  0  0  0  0  0  0  0  0  0  0  0
   33.6007   12.8324    4.0746 H   0  0  0  0  0  0  0  0  0  0  0  0
   32.0276   12.8363    4.7828 H   0  0  0  0  0  0  0  0  0  0  0  0
   35.0051   14.8074    7.7716 H   0  0  0  0  0  0  0  0  0  0  0  0
   35.8767   15.8708    6.6455 H   0  0  0  0  0  0  0  0  0  0  0  0
   37.2776   13.8257    7.4672 H   0  0  0  0  0  0  0  0  0  0  0  0
   36.1509   12.8102    6.5837 H   0  0  0  0  0  0  0  0  0  0  0  0
   36.1222   12.7991    4.2463 H   0  0  0  0  0  0  0  0  0  0  0  0
   36.9635   14.0859    3.3720 H   0  0  0  0  0  0  0  0  0  0  0  0
   34.4521   14.5661    3.5751 H   0  0  0  0  0  0  0  0  0  0  0  0
   35.4939   15.7909    4.2649 H   0  0  0  0  0  0  0  0  0  0  0  0
   31.3355   12.4737    6.7316 H   0  0  0  0  0  0  0  0  0  0  0  0
  1  2  3  0
  2  3  1  0
  3  4  1  0
  4  5  2  0
  4  6  1  0
  6  7  1  0
  7  8  2  0
  8  9  1  0
  9 10  2  0
 10 11  1  0
 11 12  1  0
 12 13  1  0
 13 14  1  0
 14 15  2  0
 14 16  1  0
 16 17  1  0
 17 18  1  0
 18 19  1  0
 19 20  1  0
 20 21  1  0
 11 22  2  0
 22  7  1  0
 21 16  1  0
  3 23  1  0
  3 24  1  0
  6 25  1  0
  8 26  1  0
  9 27  1  0
 13 28  1  0
 13 29  1  0
 17 30  1  0
 17 31  1  0
 18 32  1  0
 18 33  1  0
 20 34  1  0
 20 35  1  0
 21 36  1  0
 21 37  1  0
 22 38  1  0
M  END
