LIG
     RDKit          3D

 38 39  0  0  0  0  0  0  0  0999 V2000
   -4.1488   -0.9621   -0.5068 C   0  0  0  0  0  0  0  0  0  0  0  0
   -2.7647   -0.9381   -1.0923 C   0  0  0  0  0  0  0  0  0  0  0  0
   -2.6321   -1.3771   -2.4235 C   0  0  0  0  0  0  0  0  0  0  0  0
   -1.3823   -1.4891   -3.0299 C   0  0  0  0  0  0  0  0  0  0  0  0
   -0.2306   -1.1711   -2.3170 C   0  0  0  0  0  0  0  0  0  0  0  0
   -0.3341   -0.7140   -1.0025 C   0  0  0  0  0  0  0  0  0  0  0  0
    0.7351   -0.3362   -0.2211 O   0  0  0  0  0  0  0  0  0  0  0  0
    2.0422   -0.7270   -0.6318 C   0  0  0  0  0  0  0  0  0  0  0  0
    2.6996    0.3463   -1.5023 C   0  0  0  0  0  0  0  0  0  0  0  0
    3.3195    1.2952   -0.4941 C   0  0  0  0  0  0  0  0  0  0  0  0
    3.7214    0.4221    0.5763 N   0  0  0  0  0  0  0  0  0  0  0  0
    4.4324    0.9199    1.7302 C   0  0  0  0  0  0  0  0  0  0  0  0
    2.9151   -0.7129    0.6235 C   0  0  0  0  0  0  0  0  0  0  0  0
    2.8632   -1.5241    1.5362 O   0  0  0  0  0  0  0  0  0  0  0  0
   -1.6065   -0.5521   -0.3947 C   0  0  0  0  0  0  0  0  0  0  0  0
   -1.5732   -0.0501    0.9309 N   0  0  0  0  0  0  0  0  0  0  0  0
   -2.4817    0.7933    1.5358 C   0  0  0  0  0  0  0  0  0  0  0  0
   -3.4926    1.2815    1.0369 O   0  0  0  0  0  0  0  0  0  0  0  0
   -2.1038    1.1283    2.9832 C   0  0  0  0  0  0  0  0  0  0  0  0
   -2.8570    2.2208    3.4930 O   0  0  0  0  0  0  0  0  0  0  0  0
   -4.6655   -0.0180   -0.7024 H   0  0  0  0  0  0  0  0  0  0  0  0
   -4.7425   -1.7672   -0.9567 H   0  0  0  0  0  0  0  0  0  0  0  0
   -4.1306   -1.1744    0.5665 H   0  0  0  0  0  0  0  0  0  0  0  0
   -3.5168   -1.6575   -2.9937 H   0  0  0  0  0  0  0  0  0  0  0  0
   -1.3096   -1.8384   -4.0573 H   0  0  0  0  0  0  0  0  0  0  0  0
    0.7227   -1.2725   -2.8233 H   0  0  0  0  0  0  0  0  0  0  0  0
    2.0794   -1.7289   -1.0735 H   0  0  0  0  0  0  0  0  0  0  0  0
    3.4917   -0.1115   -2.1088 H   0  0  0  0  0  0  0  0  0  0  0  0
    2.0063    0.8686   -2.1680 H   0  0  0  0  0  0  0  0  0  0  0  0
    2.5838    2.0101   -0.1085 H   0  0  0  0  0  0  0  0  0  0  0  0
    4.1836    1.8294   -0.8996 H   0  0  0  0  0  0  0  0  0  0  0  0
    4.7058    0.0935    2.3915 H   0  0  0  0  0  0  0  0  0  0  0  0
    3.7823    1.6108    2.2745 H   0  0  0  0  0  0  0  0  0  0  0  0
    5.3344    1.4398    1.3977 H   0  0  0  0  0  0  0  0  0  0  0  0
   -0.6324   -0.0338    1.3181 H   0  0  0  0  0  0  0  0  0  0  0  0
   -1.0429    1.3896    3.0437 H   0  0  0  0  0  0  0  0  0  0  0  0
   -2.2992    0.2509    3.6081 H   0  0  0  0  0  0  0  0  0  0  0  0
   -3.6717    2.2558    2.9508 H   0  0  0  0  0  0  0  0  0  0  0  0
  1  2  1  0
  2  3  2  0
  3  4  1  0
  4  5  2  0
  5  6  1  0
  6  7  1  0
  7  8  1  0
  8  9  1  0
  9 10  1  0
 10 11  1  0
 11 12  1  0
 11 13  1  0
 13 14  2  0
  6 15  2  0
 15 16  1  0
 16 17  1  0
 17 18  2  0
 17 19  1  0
 19 20  1  0
 15  2  1  0
 13  8  1  0
  1 21  1  0
  1 22  1  0
  1 23  1  0
  3 24  1  0
  4 25  1  0
  5 26  1  0
  8 27  1  0
  9 28  1  0
  9 29  1  0
 10 30  1  0
 10 31  1  0
 12 32  1  0
 12 33  1  0
 12 34  1  0
 16 35  1  0
 19 36  1  0
 19 37  1  0
 20 38  1  0
M  END
