LIG
     RDKit          3D

 40 41  0  0  0  0  0  0  0  0999 V2000
   30.6854    8.2084    8.1447 C   0  0  0  0  0  0  0  0  0  0  0  0
   31.3221    9.4155    7.5629 C   0  0  0  0  0  0  0  0  0  0  0  0
   31.0146   10.5987    8.1598 C   0  0  0  0  0  0  0  0  0  0  0  0
   31.7287   11.7061    7.7787 C   0  0  0  0  0  0  0  0  0  0  0  0
   31.4163   12.8490    8.4412 O   0  0  0  0  0  0  0  0  0  0  0  0
   30.4127   13.5472    7.7561 C   0  0  0  0  0  0  0  0  0  0  0  0
   29.0915   12.8350    7.4635 C   0  0  0  0  0  0  0  0  0  0  0  0
   28.1588   13.9927    7.2608 C   0  0  0  0  0  0  0  0  0  0  0  0
   28.6277   14.9299    8.2337 N   0  0  0  0  0  0  0  0  0  0  0  0
   27.7345   15.6830    9.0377 C   0  0  0  0  0  0  0  0  0  0  0  0
   29.9355   14.6883    8.6294 C   0  0  0  0  0  0  0  0  0  0  0  0
   30.5798   15.2887    9.4766 O   0  0  0  0  0  0  0  0  0  0  0  0
   32.7611   11.6269    6.8481 C   0  0  0  0  0  0  0  0  0  0  0  0
   33.6266   12.7200    6.6385 N   0  0  0  0  0  0  0  0  0  0  0  0
   34.2321   13.3617    7.7178 C   0  0  0  0  0  0  0  0  0  0  0  0
   34.0862   13.0359    8.8973 O   0  0  0  0  0  0  0  0  0  0  0  0
   35.1406   14.5175    7.3562 C   0  0  0  0  0  0  0  0  0  0  0  0
   35.5213   14.6207    5.5831 S   0  0  0  0  0  0  0  0  0  0  0  0
   32.9292   10.4072    6.1973 C   0  0  0  0  0  0  0  0  0  0  0  0
   33.9632   10.2030    5.1326 C   0  0  0  0  0  0  0  0  0  0  0  0
   32.2147    9.3056    6.5459 N   0  0  0  0  0  0  0  0  0  0  0  0
   31.0511    7.3639    7.5805 H   0  0  0  0  0  0  0  0  0  0  0  0
   29.5951    8.2597    8.0911 H   0  0  0  0  0  0  0  0  0  0  0  0
   30.9806    8.0901    9.1915 H   0  0  0  0  0  0  0  0  0  0  0  0
   30.2817   10.6474    8.9553 H   0  0  0  0  0  0  0  0  0  0  0  0
   30.8218   13.9304    6.8198 H   0  0  0  0  0  0  0  0  0  0  0  0
   29.1348   12.1818    6.5888 H   0  0  0  0  0  0  0  0  0  0  0  0
   28.7726   12.2447    8.3257 H   0  0  0  0  0  0  0  0  0  0  0  0
   27.1201   13.7124    7.4087 H   0  0  0  0  0  0  0  0  0  0  0  0
   28.2757   14.4395    6.2685 H   0  0  0  0  0  0  0  0  0  0  0  0
   26.7194   15.5614    8.6797 H   0  0  0  0  0  0  0  0  0  0  0  0
   27.8112   15.3345   10.0681 H   0  0  0  0  0  0  0  0  0  0  0  0
   28.0296   16.7190    8.9117 H   0  0  0  0  0  0  0  0  0  0  0  0
   34.2311   12.7082    5.8236 H   0  0  0  0  0  0  0  0  0  0  0  0
   36.0770   14.3988    7.9068 H   0  0  0  0  0  0  0  0  0  0  0  0
   34.6528   15.4363    7.6735 H   0  0  0  0  0  0  0  0  0  0  0  0
   35.5942   15.9678    5.5341 H   0  0  0  0  0  0  0  0  0  0  0  0
   33.7222   10.8143    4.2572 H   0  0  0  0  0  0  0  0  0  0  0  0
   34.9600   10.4712    5.4906 H   0  0  0  0  0  0  0  0  0  0  0  0
   33.9928    9.1560    4.8136 H   0  0  0  0  0  0  0  0  0  0  0  0
  1  2  1  0
  2  3  2  0
  3  4  1  0
  4  5  1  0
  5  6  1  0
  6  7  1  0
  7  8  1  0
  8  9  1  0
  9 10  1  0
  9 11  1  0
 11 12  2  0
  4 13  2  0
 13 14  1  0
 14 15  1  0
 15 16  2  0
 15 17  1  0
 17 18  1  0
 13 19  1  0
 19 20  1  0
 19 21  2  0
 21  2  1  0
 11  6  1  0
  1 22  1  0
  1 23  1  0
  1 24  1  0
  3 25  1  0
  6 26  1  0
  7 27  1  0
  7 28  1  0
  8 29  1  0
  8 30  1  0
 10 31  1  0
 10 32  1  0
 10 33  1  0
 14 34  1  0
 17 35  1  0
 17 36  1  0
 18 37  1  0
 20 38  1  0
 20 39  1  0
 20 40  1  0
M  END
