LIG
     RDKit          3D

 28 28  0  0  0  0  0  0  0  0999 V2000
   29.1624   14.5599    8.7869 C   0  0  0  0  0  0  0  0  0  0  0  0
   29.5510   13.3662    7.9611 C   0  0  0  0  0  0  0  0  0  0  0  0
   28.7134   12.7868    7.2738 O   0  0  0  0  0  0  0  0  0  0  0  0
   30.8973   13.0593    8.0161 N   0  0  0  0  0  0  0  0  0  0  0  0
   31.4274   11.8390    7.5467 C   0  0  0  0  0  0  0  0  0  0  0  0
   30.7643   10.6419    7.8140 C   0  0  0  0  0  0  0  0  0  0  0  0
   31.2845    9.4284    7.3666 C   0  0  0  0  0  0  0  0  0  0  0  0
   32.4213    9.4106    6.5644 C   0  0  0  0  0  0  0  0  0  0  0  0
   33.0901   10.5942    6.3041 C   0  0  0  0  0  0  0  0  0  0  0  0
   34.2631   10.5262    5.6037 O   0  0  0  0  0  0  0  0  0  0  0  0
   32.6417   11.8006    6.8467 C   0  0  0  0  0  0  0  0  0  0  0  0
   33.4391   12.9497    6.6642 N   0  0  0  0  0  0  0  0  0  0  0  0
   34.1143   13.4736    7.7570 C   0  0  0  0  0  0  0  0  0  0  0  0
   33.8721   13.1508    8.9212 O   0  0  0  0  0  0  0  0  0  0  0  0
   35.1434   14.5370    7.4340 C   0  0  0  0  0  0  0  0  0  0  0  0
   35.6016   14.5868    5.6799 S   0  0  0  0  0  0  0  0  0  0  0  0
   28.8770   15.3804    8.1233 H   0  0  0  0  0  0  0  0  0  0  0  0
   29.9851   14.8895    9.4276 H   0  0  0  0  0  0  0  0  0  0  0  0
   28.3170   14.2925    9.4269 H   0  0  0  0  0  0  0  0  0  0  0  0
   31.5552   13.8172    8.1276 H   0  0  0  0  0  0  0  0  0  0  0  0
   29.8533   10.6330    8.4039 H   0  0  0  0  0  0  0  0  0  0  0  0
   30.7796    8.4984    7.6244 H   0  0  0  0  0  0  0  0  0  0  0  0
   32.8189    8.4711    6.1972 H   0  0  0  0  0  0  0  0  0  0  0  0
   34.9250   11.0072    6.1399 H   0  0  0  0  0  0  0  0  0  0  0  0
   34.0279   12.9390    5.8311 H   0  0  0  0  0  0  0  0  0  0  0  0
   36.0397   14.3463    8.0293 H   0  0  0  0  0  0  0  0  0  0  0  0
   34.7142   15.4948    7.7148 H   0  0  0  0  0  0  0  0  0  0  0  0
   35.6559   15.9324    5.5739 H   0  0  0  0  0  0  0  0  0  0  0  0
  1  2  1  0
  2  3  2  0
  2  4  1  0
  4  5  1  0
  5  6  2  0
  6  7  1  0
  7  8  2  0
  8  9  1  0
  9 10  1  0
  9 11  2  0
 11 12  1  0
 12 13  1  0
 13 14  2  0
 13 15  1  0
 15 16  1  0
 11  5  1  0
  1 17  1  0
  1 18  1  0
  1 19  1  0
  4 20  1  0
  6 21  1  0
  7 22  1  0
  8 23  1  0
 10 24  1  0
 12 25  1  0
 15 26  1  0
 15 27  1  0
 16 28  1  0
M  END
