LIG
     RDKit          3D

 41 42  0  0  0  0  0  0  0  0999 V2000
   35.6334    8.0986    3.7041 C   0  0  0  0  0  0  0  0  0  0  0  0
   34.8410    9.2426    4.2803 C   0  0  0  0  0  0  0  0  0  0  0  0
   34.9456   10.3692    3.8056 O   0  0  0  0  0  0  0  0  0  0  0  0
   34.0123    8.8262    5.3057 N   0  0  0  0  0  0  0  0  0  0  0  0
   33.0630    9.5828    6.0151 C   0  0  0  0  0  0  0  0  0  0  0  0
   32.2579    8.9431    6.9538 C   0  0  0  0  0  0  0  0  0  0  0  0
   31.2983    9.6382    7.6925 C   0  0  0  0  0  0  0  0  0  0  0  0
   30.4776    8.8968    8.6991 C   0  0  0  0  0  0  0  0  0  0  0  0
   31.0924   10.9927    7.4310 C   0  0  0  0  0  0  0  0  0  0  0  0
   31.8671   11.6349    6.4702 C   0  0  0  0  0  0  0  0  0  0  0  0
   31.5381   12.9386    6.1939 O   0  0  0  0  0  0  0  0  0  0  0  0
   32.4658   13.6157    5.3500 C   0  0  0  0  0  0  0  0  0  0  0  0
   33.7773   13.8943    6.0901 C   0  0  0  0  0  0  0  0  0  0  0  0
   33.8101   13.9095    7.3237 O   0  0  0  0  0  0  0  0  0  0  0  0
   34.9110   14.0720    5.3208 N   0  0  0  0  0  0  0  0  0  0  0  0
   36.1533   14.3480    6.0258 C   0  0  0  0  0  0  0  0  0  0  0  0
   37.3498   13.7877    5.2598 C   0  0  0  0  0  0  0  0  0  0  0  0
   37.3906   14.3002    3.9190 O   0  0  0  0  0  0  0  0  0  0  0  0
   36.1957   13.9308    3.2136 C   0  0  0  0  0  0  0  0  0  0  0  0
   34.9356   14.4596    3.9092 C   0  0  0  0  0  0  0  0  0  0  0  0
   32.8740   10.9317    5.8035 C   0  0  0  0  0  0  0  0  0  0  0  0
   34.9946    7.5143    3.0363 H   0  0  0  0  0  0  0  0  0  0  0  0
   36.0228    7.4549    4.4979 H   0  0  0  0  0  0  0  0  0  0  0  0
   36.4837    8.4914    3.1392 H   0  0  0  0  0  0  0  0  0  0  0  0
   34.0437    7.8307    5.5382 H   0  0  0  0  0  0  0  0  0  0  0  0
   32.3743    7.8867    7.1554 H   0  0  0  0  0  0  0  0  0  0  0  0
   31.0729    8.1298    9.2009 H   0  0  0  0  0  0  0  0  0  0  0  0
   29.6191    8.4215    8.2187 H   0  0  0  0  0  0  0  0  0  0  0  0
   30.1216    9.5735    9.4753 H   0  0  0  0  0  0  0  0  0  0  0  0
   30.3205   11.5447    7.9655 H   0  0  0  0  0  0  0  0  0  0  0  0
   32.0244   14.5678    5.0580 H   0  0  0  0  0  0  0  0  0  0  0  0
   32.5944   13.0749    4.4084 H   0  0  0  0  0  0  0  0  0  0  0  0
   36.1397   13.9360    7.0396 H   0  0  0  0  0  0  0  0  0  0  0  0
   36.2191   15.4374    6.0946 H   0  0  0  0  0  0  0  0  0  0  0  0
   37.3139   12.6922    5.2200 H   0  0  0  0  0  0  0  0  0  0  0  0
   38.2853   14.0700    5.7506 H   0  0  0  0  0  0  0  0  0  0  0  0
   36.1635   12.8387    3.1248 H   0  0  0  0  0  0  0  0  0  0  0  0
   36.2642   14.3442    2.2026 H   0  0  0  0  0  0  0  0  0  0  0  0
   34.0460   14.1186    3.3781 H   0  0  0  0  0  0  0  0  0  0  0  0
   34.9314   15.5545    3.8856 H   0  0  0  0  0  0  0  0  0  0  0  0
   33.5129   11.4227    5.0883 H   0  0  0  0  0  0  0  0  0  0  0  0
  1  2  1  0
  2  3  2  0
  2  4  1  0
  4  5  1  0
  5  6  2  0
  6  7  1  0
  7  8  1  0
  7  9  2  0
  9 10  1  0
 10 11  1  0
 11 12  1  0
 12 13  1  0
 13 14  2  0
 13 15  1  0
 15 16  1  0
 16 17  1  0
 17 18  1  0
 18 19  1  0
 19 20  1  0
 10 21  2  0
 21  5  1  0
 20 15  1  0
  1 22  1  0
  1 23  1  0
  1 24  1  0
  4 25  1  0
  6 26  1  0
  8 27  1  0
  8 28  1  0
  8 29  1  0
  9 30  1  0
 12 31  1  0
 12 32  1  0
 16 33  1  0
 16 34  1  0
 17 35  1  0
 17 36  1  0
 19 37  1  0
 19 38  1  0
 20 39  1  0
 20 40  1  0
 21 41  1  0
M  END
