LIG
     RDKit          3D

 41 42  0  0  0  0  0  0  0  0999 V2000
   30.8409    8.3519    8.1709 C   0  0  0  0  0  0  0  0  0  0  0  0
   31.4717    9.5183    7.4947 C   0  0  0  0  0  0  0  0  0  0  0  0
   32.4822    9.3805    6.5409 C   0  0  0  0  0  0  0  0  0  0  0  0
   33.1593   10.4935    6.0363 C   0  0  0  0  0  0  0  0  0  0  0  0
   34.2785   10.2924    5.0594 C   0  0  0  0  0  0  0  0  0  0  0  0
   32.8116   11.7485    6.5462 C   0  0  0  0  0  0  0  0  0  0  0  0
   33.6885   12.8374    6.3963 N   0  0  0  0  0  0  0  0  0  0  0  0
   34.2143   13.4369    7.5443 C   0  0  0  0  0  0  0  0  0  0  0  0
   33.9228   13.1243    8.7041 O   0  0  0  0  0  0  0  0  0  0  0  0
   35.2041   14.5507    7.2797 C   0  0  0  0  0  0  0  0  0  0  0  0
   35.7412   14.6544    5.5489 S   0  0  0  0  0  0  0  0  0  0  0  0
   31.6788   11.9066    7.3536 C   0  0  0  0  0  0  0  0  0  0  0  0
   31.2444   13.1953    7.5566 O   0  0  0  0  0  0  0  0  0  0  0  0
   30.2162   13.3096    8.5074 C   0  0  0  0  0  0  0  0  0  0  0  0
   28.8548   12.8709    7.9503 C   0  0  0  0  0  0  0  0  0  0  0  0
   28.3846   14.1072    7.2556 C   0  0  0  0  0  0  0  0  0  0  0  0
   28.7764   15.1345    8.1742 N   0  0  0  0  0  0  0  0  0  0  0  0
   27.7834   15.7837    8.9500 C   0  0  0  0  0  0  0  0  0  0  0  0
   29.9287   14.7463    8.8798 C   0  0  0  0  0  0  0  0  0  0  0  0
   30.5235   15.4192    9.7116 O   0  0  0  0  0  0  0  0  0  0  0  0
   31.0568   10.7800    7.8705 C   0  0  0  0  0  0  0  0  0  0  0  0
   29.7496    8.4274    8.1653 H   0  0  0  0  0  0  0  0  0  0  0  0
   31.1236    7.4594    7.6288 H   0  0  0  0  0  0  0  0  0  0  0  0
   31.1856    8.2643    9.2032 H   0  0  0  0  0  0  0  0  0  0  0  0
   32.7992    8.3854    6.2433 H   0  0  0  0  0  0  0  0  0  0  0  0
   34.4151    9.2344    4.8114 H   0  0  0  0  0  0  0  0  0  0  0  0
   34.0539   10.8209    4.1269 H   0  0  0  0  0  0  0  0  0  0  0  0
   35.2257   10.6643    5.4572 H   0  0  0  0  0  0  0  0  0  0  0  0
   34.3752   12.8002    5.6493 H   0  0  0  0  0  0  0  0  0  0  0  0
   34.7279   15.4878    7.5584 H   0  0  0  0  0  0  0  0  0  0  0  0
   36.0802   14.3852    7.9116 H   0  0  0  0  0  0  0  0  0  0  0  0
   35.6914   16.0005    5.4622 H   0  0  0  0  0  0  0  0  0  0  0  0
   30.4904   12.8189    9.4336 H   0  0  0  0  0  0  0  0  0  0  0  0
   28.8626   12.0314    7.2535 H   0  0  0  0  0  0  0  0  0  0  0  0
   28.1801   12.6489    8.7818 H   0  0  0  0  0  0  0  0  0  0  0  0
   27.3125   14.0947    7.0553 H   0  0  0  0  0  0  0  0  0  0  0  0
   28.9202   14.2684    6.3132 H   0  0  0  0  0  0  0  0  0  0  0  0
   26.7965   15.5834    8.5425 H   0  0  0  0  0  0  0  0  0  0  0  0
   27.9997   16.8435    8.8843 H   0  0  0  0  0  0  0  0  0  0  0  0
   27.8016   15.4026    9.9734 H   0  0  0  0  0  0  0  0  0  0  0  0
   30.2536   10.8267    8.5967 H   0  0  0  0  0  0  0  0  0  0  0  0
  1  2  1  0
  2  3  2  0
  3  4  1  0
  4  5  1  0
  4  6  2  0
  6  7  1  0
  7  8  1  0
  8  9  2  0
  8 10  1  0
 10 11  1  0
  6 12  1  0
 12 13  1  0
 13 14  1  0
 14 15  1  0
 15 16  1  0
 16 17  1  0
 17 18  1  0
 17 19  1  0
 19 20  2  0
 12 21  2  0
 21  2  1  0
 19 14  1  0
  1 22  1  0
  1 23  1  0
  1 24  1  0
  3 25  1  0
  5 26  1  0
  5 27  1  0
  5 28  1  0
  7 29  1  0
 10 30  1  0
 10 31  1  0
 11 32  1  0
 14 33  1  0
 15 34  1  0
 15 35  1  0
 16 36  1  0
 16 37  1  0
 18 38  1  0
 18 39  1  0
 18 40  1  0
 21 41  1  0
M  END
