LIG
     RDKit          3D

 41 41  0  0  0  0  0  0  0  0999 V2000
   29.2449   14.5163    8.7547 C   0  0  0  0  0  0  0  0  0  0  0  0
   29.6274   13.3299    7.9152 C   0  0  0  0  0  0  0  0  0  0  0  0
   28.7835   12.7564    7.2297 O   0  0  0  0  0  0  0  0  0  0  0  0
   30.9734   13.0156    7.9592 N   0  0  0  0  0  0  0  0  0  0  0  0
   31.4903   11.7886    7.4887 C   0  0  0  0  0  0  0  0  0  0  0  0
   30.8212   10.6069    7.7939 C   0  0  0  0  0  0  0  0  0  0  0  0
   31.3204    9.3870    7.3540 C   0  0  0  0  0  0  0  0  0  0  0  0
   32.4275    9.3447    6.5057 C   0  0  0  0  0  0  0  0  0  0  0  0
   33.1036   10.5097    6.1698 C   0  0  0  0  0  0  0  0  0  0  0  0
   34.2090   10.5786    5.3660 O   0  0  0  0  0  0  0  0  0  0  0  0
   34.6810    9.4233    4.6899 C   0  0  0  0  0  0  0  0  0  0  0  0
   34.0484    9.0682    3.3343 C   0  0  0  0  0  0  0  0  0  0  0  0
   33.8224    7.8936    3.0400 O   0  0  0  0  0  0  0  0  0  0  0  0
   33.7749   10.0849    2.4293 N   0  0  0  0  0  0  0  0  0  0  0  0
   34.1581   11.4706    2.6211 C   0  0  0  0  0  0  0  0  0  0  0  0
   33.0849    9.7737    1.1851 C   0  0  0  0  0  0  0  0  0  0  0  0
   32.6872   11.7250    6.7514 C   0  0  0  0  0  0  0  0  0  0  0  0
   33.5205   12.8559    6.5670 N   0  0  0  0  0  0  0  0  0  0  0  0
   34.1052   13.4675    7.6681 C   0  0  0  0  0  0  0  0  0  0  0  0
   33.7932   13.2510    8.8386 O   0  0  0  0  0  0  0  0  0  0  0  0
   35.2208   14.4367    7.2837 C   0  0  0  0  0  0  0  0  0  0  0  0
   35.1412   14.8843    5.9371 O   0  0  0  0  0  0  0  0  0  0  0  0
   30.0773   14.8491    9.3810 H   0  0  0  0  0  0  0  0  0  0  0  0
   28.4142   14.2381    9.4092 H   0  0  0  0  0  0  0  0  0  0  0  0
   28.9392   15.3376    8.1013 H   0  0  0  0  0  0  0  0  0  0  0  0
   31.6406   13.7673    8.0668 H   0  0  0  0  0  0  0  0  0  0  0  0
   29.9276   10.6160    8.4110 H   0  0  0  0  0  0  0  0  0  0  0  0
   30.8165    8.4650    7.6432 H   0  0  0  0  0  0  0  0  0  0  0  0
   32.7553    8.3750    6.1593 H   0  0  0  0  0  0  0  0  0  0  0  0
   35.7359    9.6163    4.4625 H   0  0  0  0  0  0  0  0  0  0  0  0
   34.6921    8.5460    5.3414 H   0  0  0  0  0  0  0  0  0  0  0  0
   35.0347   11.5634    3.2647 H   0  0  0  0  0  0  0  0  0  0  0  0
   33.3133   12.0073    3.0619 H   0  0  0  0  0  0  0  0  0  0  0  0
   34.4052   11.9190    1.6537 H   0  0  0  0  0  0  0  0  0  0  0  0
   33.7808    9.9285    0.3551 H   0  0  0  0  0  0  0  0  0  0  0  0
   32.2329   10.4505    1.0734 H   0  0  0  0  0  0  0  0  0  0  0  0
   32.7253    8.7421    1.1531 H   0  0  0  0  0  0  0  0  0  0  0  0
   34.1986   12.7625    5.8119 H   0  0  0  0  0  0  0  0  0  0  0  0
   35.1526   15.2920    7.9530 H   0  0  0  0  0  0  0  0  0  0  0  0
   36.1811   13.9351    7.4287 H   0  0  0  0  0  0  0  0  0  0  0  0
   35.1641   15.8681    5.9427 H   0  0  0  0  0  0  0  0  0  0  0  0
  1  2  1  0
  2  3  2  0
  2  4  1  0
  4  5  1  0
  5  6  2  0
  6  7  1  0
  7  8  2  0
  8  9  1  0
  9 10  1  0
 10 11  1  0
 11 12  1  0
 12 13  2  0
 12 14  1  0
 14 15  1  0
 14 16  1  0
  9 17  2  0
 17 18  1  0
 18 19  1  0
 19 20  2  0
 19 21  1  0
 21 22  1  0
 17  5  1  0
  1 23  1  0
  1 24  1  0
  1 25  1  0
  4 26  1  0
  6 27  1  0
  7 28  1  0
  8 29  1  0
 11 30  1  0
 11 31  1  0
 15 32  1  0
 15 33  1  0
 15 34  1  0
 16 35  1  0
 16 36  1  0
 16 37  1  0
 18 38  1  0
 21 39  1  0
 21 40  1  0
 22 41  1  0
M  END
