LIG
     RDKit          3D

 52 54  0  0  0  0  0  0  0  0999 V2000
   -2.6602    4.9393   -0.7876 C   0  0  0  0  0  0  0  0  0  0  0  0
   -2.0203    3.7855   -0.0732 C   0  0  0  0  0  0  0  0  0  0  0  0
   -1.3543    3.9800    1.1411 C   0  0  0  0  0  0  0  0  0  0  0  0
   -0.7183    2.9137    1.7956 C   0  0  0  0  0  0  0  0  0  0  0  0
   -0.0214    3.1409    3.1109 C   0  0  0  0  0  0  0  0  0  0  0  0
   -0.7343    1.6394    1.2059 C   0  0  0  0  0  0  0  0  0  0  0  0
   -0.0992    0.6405    1.8994 O   0  0  0  0  0  0  0  0  0  0  0  0
    0.8246   -0.1060    1.1143 C   0  0  0  0  0  0  0  0  0  0  0  0
    2.0766   -0.4784    1.9286 C   0  0  0  0  0  0  0  0  0  0  0  0
    2.2189   -0.1458    3.1066 O   0  0  0  0  0  0  0  0  0  0  0  0
    3.0712   -1.1894    1.2486 N   0  0  0  0  0  0  0  0  0  0  0  0
    4.2012   -1.6908    2.0343 C   0  0  0  0  0  0  0  0  0  0  0  0
    5.4378   -1.9115    1.1614 C   0  0  0  0  0  0  0  0  0  0  0  0
    5.1321   -2.7701    0.0536 O   0  0  0  0  0  0  0  0  0  0  0  0
    4.1393   -2.1601   -0.7791 C   0  0  0  0  0  0  0  0  0  0  0  0
    2.8375   -1.9046   -0.0134 C   0  0  0  0  0  0  0  0  0  0  0  0
   -1.4283    1.4273    0.0041 C   0  0  0  0  0  0  0  0  0  0  0  0
   -1.4314    0.1724   -0.5534 O   0  0  0  0  0  0  0  0  0  0  0  0
   -2.7373   -0.3058   -0.8798 C   0  0  0  0  0  0  0  0  0  0  0  0
   -2.9002   -0.3879   -2.4021 C   0  0  0  0  0  0  0  0  0  0  0  0
   -2.3752   -1.7691   -2.7433 C   0  0  0  0  0  0  0  0  0  0  0  0
   -2.7694   -2.5582   -1.6075 N   0  0  0  0  0  0  0  0  0  0  0  0
   -2.5310   -3.9820   -1.5574 C   0  0  0  0  0  0  0  0  0  0  0  0
   -2.8385   -1.7725   -0.4568 C   0  0  0  0  0  0  0  0  0  0  0  0
   -2.9056   -2.1879    0.6905 O   0  0  0  0  0  0  0  0  0  0  0  0
   -2.0433    2.5063   -0.6414 C   0  0  0  0  0  0  0  0  0  0  0  0
   -2.8546    5.7716   -0.1035 H   0  0  0  0  0  0  0  0  0  0  0  0
   -2.0061    5.2928   -1.5887 H   0  0  0  0  0  0  0  0  0  0  0  0
   -3.6205    4.6398   -1.2161 H   0  0  0  0  0  0  0  0  0  0  0  0
   -1.3234    4.9738    1.5801 H   0  0  0  0  0  0  0  0  0  0  0  0
   -0.0788    4.1902    3.4187 H   0  0  0  0  0  0  0  0  0  0  0  0
    1.0375    2.8772    3.0312 H   0  0  0  0  0  0  0  0  0  0  0  0
   -0.4891    2.5386    3.8960 H   0  0  0  0  0  0  0  0  0  0  0  0
    1.1701    0.4691    0.2452 H   0  0  0  0  0  0  0  0  0  0  0  0
    0.3354   -1.0384    0.8035 H   0  0  0  0  0  0  0  0  0  0  0  0
    4.4370   -1.0016    2.8545 H   0  0  0  0  0  0  0  0  0  0  0  0
    3.8795   -2.6450    2.4705 H   0  0  0  0  0  0  0  0  0  0  0  0
    6.2300   -2.3864    1.7440 H   0  0  0  0  0  0  0  0  0  0  0  0
    5.8241   -0.9622    0.7779 H   0  0  0  0  0  0  0  0  0  0  0  0
    3.9485   -2.8359   -1.6193 H   0  0  0  0  0  0  0  0  0  0  0  0
    4.5406   -1.2266   -1.1884 H   0  0  0  0  0  0  0  0  0  0  0  0
    2.1451   -1.3482   -0.6521 H   0  0  0  0  0  0  0  0  0  0  0  0
    2.3647   -2.8615    0.2476 H   0  0  0  0  0  0  0  0  0  0  0  0
   -3.5531    0.2579   -0.4103 H   0  0  0  0  0  0  0  0  0  0  0  0
   -2.3573    0.3890   -2.9477 H   0  0  0  0  0  0  0  0  0  0  0  0
   -3.9651   -0.3237   -2.6596 H   0  0  0  0  0  0  0  0  0  0  0  0
   -2.8158   -2.1667   -3.6606 H   0  0  0  0  0  0  0  0  0  0  0  0
   -1.2819   -1.7768   -2.8131 H   0  0  0  0  0  0  0  0  0  0  0  0
   -2.9923   -4.4095   -0.6613 H   0  0  0  0  0  0  0  0  0  0  0  0
   -2.9578   -4.4493   -2.4468 H   0  0  0  0  0  0  0  0  0  0  0  0
   -1.4518   -4.1594   -1.5234 H   0  0  0  0  0  0  0  0  0  0  0  0
   -2.5361    2.3661   -1.6039 H   0  0  0  0  0  0  0  0  0  0  0  0
  1  2  1  0
  2  3  2  0
  3  4  1  0
  4  5  1  0
  4  6  2  0
  6  7  1  0
  7  8  1  0
  8  9  1  0
  9 10  2  0
  9 11  1  0
 11 12  1  0
 12 13  1  0
 13 14  1  0
 14 15  1  0
 15 16  1  0
  6 17  1  0
 17 18  1  0
 18 19  1  0
 19 20  1  0
 20 21  1  0
 21 22  1  0
 22 23  1  0
 22 24  1  0
 24 25  2  0
 17 26  2  0
 26  2  1  0
 16 11  1  0
 24 19  1  0
  1 27  1  0
  1 28  1  0
  1 29  1  0
  3 30  1  0
  5 31  1  0
  5 32  1  0
  5 33  1  0
  8 34  1  0
  8 35  1  0
 12 36  1  0
 12 37  1  0
 13 38  1  0
 13 39  1  0
 15 40  1  0
 15 41  1  0
 16 42  1  0
 16 43  1  0
 19 44  1  0
 20 45  1  0
 20 46  1  0
 21 47  1  0
 21 48  1  0
 23 49  1  0
 23 50  1  0
 23 51  1  0
 26 52  1  0
M  END
