LIG
     RDKit          3D

 38 39  0  0  0  0  0  0  0  0999 V2000
   30.7382    8.3519    8.1558 C   0  0  0  0  0  0  0  0  0  0  0  0
   31.4177    9.5068    7.5045 C   0  0  0  0  0  0  0  0  0  0  0  0
   32.4595    9.3603    6.5856 C   0  0  0  0  0  0  0  0  0  0  0  0
   33.1623   10.4719    6.1316 C   0  0  0  0  0  0  0  0  0  0  0  0
   32.8183   11.7254    6.6245 C   0  0  0  0  0  0  0  0  0  0  0  0
   33.7181   12.7893    6.4624 N   0  0  0  0  0  0  0  0  0  0  0  0
   34.2286   13.4128    7.6023 C   0  0  0  0  0  0  0  0  0  0  0  0
   33.9636   13.0811    8.7622 O   0  0  0  0  0  0  0  0  0  0  0  0
   35.1821   14.5553    7.3310 C   0  0  0  0  0  0  0  0  0  0  0  0
   35.7346   14.6527    5.6023 S   0  0  0  0  0  0  0  0  0  0  0  0
   31.6699   11.8976    7.4016 C   0  0  0  0  0  0  0  0  0  0  0  0
   31.2540   13.1883    7.6080 O   0  0  0  0  0  0  0  0  0  0  0  0
   30.1919   13.3184    8.5258 C   0  0  0  0  0  0  0  0  0  0  0  0
   28.8385   12.8971    7.9462 C   0  0  0  0  0  0  0  0  0  0  0  0
   28.3887   14.1421    7.2550 C   0  0  0  0  0  0  0  0  0  0  0  0
   28.7882   15.1705    8.1671 N   0  0  0  0  0  0  0  0  0  0  0  0
   27.7796   15.7609    8.9841 C   0  0  0  0  0  0  0  0  0  0  0  0
   29.9373   14.7647    8.8717 C   0  0  0  0  0  0  0  0  0  0  0  0
   30.5986   15.4377    9.6506 O   0  0  0  0  0  0  0  0  0  0  0  0
   31.0149   10.7744    7.8843 C   0  0  0  0  0  0  0  0  0  0  0  0
   31.0480    7.4509    7.6447 H   0  0  0  0  0  0  0  0  0  0  0  0
   31.0281    8.2764    9.2072 H   0  0  0  0  0  0  0  0  0  0  0  0
   29.6500    8.4374    8.0930 H   0  0  0  0  0  0  0  0  0  0  0  0
   32.7904    8.3716    6.2887 H   0  0  0  0  0  0  0  0  0  0  0  0
   34.0402   10.3318    5.5092 H   0  0  0  0  0  0  0  0  0  0  0  0
   34.4138   12.7219    5.7275 H   0  0  0  0  0  0  0  0  0  0  0  0
   34.6773   15.4807    7.5967 H   0  0  0  0  0  0  0  0  0  0  0  0
   36.0589   14.4252    7.9703 H   0  0  0  0  0  0  0  0  0  0  0  0
   35.6236   15.9940    5.4984 H   0  0  0  0  0  0  0  0  0  0  0  0
   30.4405   12.8335    9.4610 H   0  0  0  0  0  0  0  0  0  0  0  0
   28.1523   12.6726    8.7666 H   0  0  0  0  0  0  0  0  0  0  0  0
   28.8489   12.0631    7.2427 H   0  0  0  0  0  0  0  0  0  0  0  0
   28.9338   14.2929    6.3159 H   0  0  0  0  0  0  0  0  0  0  0  0
   27.3201   14.1430    7.0395 H   0  0  0  0  0  0  0  0  0  0  0  0
   26.7938   15.5511    8.5793 H   0  0  0  0  0  0  0  0  0  0  0  0
   27.8268   15.3589    9.9985 H   0  0  0  0  0  0  0  0  0  0  0  0
   27.9540   16.8282    8.9341 H   0  0  0  0  0  0  0  0  0  0  0  0
   30.1906   10.8322    8.5873 H   0  0  0  0  0  0  0  0  0  0  0  0
  1  2  1  0
  2  3  2  0
  3  4  1  0
  4  5  2  0
  5  6  1  0
  6  7  1  0
  7  8  2  0
  7  9  1  0
  9 10  1  0
  5 11  1  0
 11 12  1  0
 12 13  1  0
 13 14  1  0
 14 15  1  0
 15 16  1  0
 16 17  1  0
 16 18  1  0
 18 19  2  0
 11 20  2  0
 20  2  1  0
 18 13  1  0
  1 21  1  0
  1 22  1  0
  1 23  1  0
  3 24  1  0
  4 25  1  0
  6 26  1  0
  9 27  1  0
  9 28  1  0
 10 29  1  0
 13 30  1  0
 14 31  1  0
 14 32  1  0
 15 33  1  0
 15 34  1  0
 17 35  1  0
 17 36  1  0
 17 37  1  0
 20 38  1  0
M  END
