A71EV2A-x0310_A_147_A71EV2A-x0501+A+152+1
     RDKit          3D

 14 14  0  0  0  0  0  0  0  0999 V2000
   28.5580   15.7160    7.2730 N   0  0  0  0  0  0  0  0  0  0  0  0
   28.5830   14.6820    7.7450 C   0  0  0  0  0  0  0  0  0  0  0  0
   28.7130   13.3600    8.3510 C   0  0  0  0  0  0  0  0  0  0  0  0
   29.7090   12.5130    7.5840 C   0  0  0  0  0  0  0  0  0  0  0  0
   29.9180   12.6920    6.3980 O   0  0  0  0  0  0  0  0  0  0  0  0
   30.3770   11.5810    8.3040 N   0  0  0  0  0  0  0  0  0  0  0  0
   31.2980   10.7060    7.7380 C   0  0  0  0  0  0  0  0  0  0  0  0
   31.3250    9.3200    8.0160 C   0  0  0  0  0  0  0  0  0  0  0  0
   30.4340    8.4960    8.8860 C   0  0  0  0  0  0  0  0  0  0  0  0
   32.3120   10.9580    6.8650 C   0  0  0  0  0  0  0  0  0  0  0  0
   32.7600   12.2430    6.2540 C   0  0  0  0  0  0  0  0  0  0  0  0
   32.8910    9.7790    6.6350 N   0  0  0  0  0  0  0  0  0  0  0  0
   32.3120    8.7640    7.3380 N   0  0  0  0  0  0  0  0  0  0  0  0
   33.9640    9.4730    5.7020 C   0  0  0  0  0  0  0  0  0  0  0  0
  9  8  1  0
  8 13  4  0
 13 12  4  0
 14 12  1  0
 12 10  4  0
 11 10  1  0
 10  7  4  0
  8  7  4  0
  7  6  1  0
  6  4  1  0
  5  4  2  0
  4  3  1  0
  3  2  1  0
  2  1  3  0
M  END
