LIG
     RDKit          3D

 35 36  0  0  0  0  0  0  0  0999 V2000
   32.7340    8.7720    6.5300 C   0  0  0  0  0  0  0  0  0  0  0  0
   33.2630    9.6380    5.6520 N   0  0  0  0  0  0  0  0  0  0  0  0
   31.7660    9.0980    7.4680 N   0  0  0  0  0  0  0  0  0  0  0  0
   31.3460   10.4150    7.4890 C   0  0  0  0  0  0  0  0  0  0  0  0
   31.8610   11.3420    6.6030 C   0  0  0  0  0  0  0  0  0  0  0  0
   30.3770   11.5810    8.3040 N   0  0  0  0  0  0  0  0  0  0  0  0
   29.7090   12.5130    7.5840 C   0  0  0  0  0  0  0  0  0  0  0  0
   29.9180   12.6920    6.3980 O   0  0  0  0  0  0  0  0  0  0  0  0
   28.7130   13.3600    8.3510 C   0  0  0  0  0  0  0  0  0  0  0  0
   28.5830   14.6820    7.7450 C   0  0  0  0  0  0  0  0  0  0  0  0
   28.5580   15.7160    7.2730 N   0  0  0  0  0  0  0  0  0  0  0  0
   32.8210   10.9050    5.6820 C   0  0  0  0  0  0  0  0  0  0  0  0
   33.3300   11.7430    4.6780 N   0  0  0  0  0  0  0  0  0  0  0  0
   33.5900   13.0680    4.7540 C   0  0  0  0  0  0  0  0  0  0  0  0
   33.4420   13.7460    5.7670 O   0  0  0  0  0  0  0  0  0  0  0  0
   34.1200   13.7080    3.4770 C   0  0  0  0  0  0  0  0  0  0  0  0
   33.0230   14.1560    2.5380 C   0  0  0  0  0  0  0  0  0  0  0  0
   33.7650   14.2490    1.2210 C   0  0  0  0  0  0  0  0  0  0  0  0
   34.7960   13.1450    1.3220 C   0  0  0  0  0  0  0  0  0  0  0  0
   34.9020   12.7780    2.7050 O   0  0  0  0  0  0  0  0  0  0  0  0
   33.2065    8.8780    7.5278 H   0  0  0  0  0  0  0  0  0  0  0  0
   31.6337    8.8866    6.6218 H   0  0  0  0  0  0  0  0  0  0  0  0
   32.2503    9.3002    7.3813 H   0  0  0  0  0  0  0  0  0  0  0  0
   30.5582   10.6057    8.2901 H   0  0  0  0  0  0  0  0  0  0  0  0
   30.7211   11.0649    8.7283 H   0  0  0  0  0  0  0  0  0  0  0  0
   27.7585   12.8408    8.3495 H   0  0  0  0  0  0  0  0  0  0  0  0
   29.0676   13.4604    9.3740 H   0  0  0  0  0  0  0  0  0  0  0  0
   33.7263   11.2438    3.8625 H   0  0  0  0  0  0  0  0  0  0  0  0
   33.1855   12.2166    3.0233 H   0  0  0  0  0  0  0  0  0  0  0  0
   32.6350   15.1402    2.8114 H   0  0  0  0  0  0  0  0  0  0  0  0
   32.1850   13.4612    2.4990 H   0  0  0  0  0  0  0  0  0  0  0  0
   34.2111   15.2365    1.0410 H   0  0  0  0  0  0  0  0  0  0  0  0
   33.0696   14.0385    0.3937 H   0  0  0  0  0  0  0  0  0  0  0  0
   35.7873   13.4897    0.9841 H   0  0  0  0  0  0  0  0  0  0  0  0
   34.5265   12.2595    0.7261 H   0  0  0  0  0  0  0  0  0  0  0  0
  1  2  1  0
  2  3  4  0
  3  4  4  0
  4  5  4  0
  5  6  1  0
  6  7  1  0
  7  8  2  0
  7  9  1  0
  9 10  1  0
 10 11  3  0
  5 12  4  0
 12 13  1  0
 13 14  1  0
 14 15  2  0
 14 16  1  0
 16 17  1  0
 17 18  1  0
 18 19  1  0
 19 20  1  0
 12  2  4  0
 20 16  1  0
  1 21  1  0
  1 22  1  0
  1 23  1  0
  4 24  1  0
  6 25  1  0
  9 26  1  0
  9 27  1  0
 13 28  1  0
 16 29  1  0
 17 30  1  0
 17 31  1  0
 18 32  1  0
 18 33  1  0
 19 34  1  0
 19 35  1  0
M  END
