LIG
     RDKit          3D

 28 28  0  0  0  0  0  0  0  0999 V2000
   29.2536   14.5710    8.7940 C   0  0  0  0  0  0  0  0  0  0  0  0
   29.6026   13.3786    7.9502 C   0  0  0  0  0  0  0  0  0  0  0  0
   28.7392   12.8246    7.2724 O   0  0  0  0  0  0  0  0  0  0  0  0
   30.9395   13.0303    7.9842 N   0  0  0  0  0  0  0  0  0  0  0  0
   31.4179   11.7737    7.5565 C   0  0  0  0  0  0  0  0  0  0  0  0
   30.6987   10.6257    7.8916 C   0  0  0  0  0  0  0  0  0  0  0  0
   31.1521    9.3657    7.5162 C   0  0  0  0  0  0  0  0  0  0  0  0
   32.2712    9.2511    6.7009 C   0  0  0  0  0  0  0  0  0  0  0  0
   32.9801   10.3855    6.3360 C   0  0  0  0  0  0  0  0  0  0  0  0
   34.0891   10.2730    5.5385 O   0  0  0  0  0  0  0  0  0  0  0  0
   32.6210   11.6386    6.8460 C   0  0  0  0  0  0  0  0  0  0  0  0
   33.5240   12.7030    6.6267 N   0  0  0  0  0  0  0  0  0  0  0  0
   34.0782   13.3902    7.6915 C   0  0  0  0  0  0  0  0  0  0  0  0
   33.7141   13.2379    8.8608 O   0  0  0  0  0  0  0  0  0  0  0  0
   35.1859   14.3701    7.3562 C   0  0  0  0  0  0  0  0  0  0  0  0
   35.4688   14.5890    5.5809 S   0  0  0  0  0  0  0  0  0  0  0  0
   28.4291   14.3067    9.4621 H   0  0  0  0  0  0  0  0  0  0  0  0
   30.1009   14.8908    9.4067 H   0  0  0  0  0  0  0  0  0  0  0  0
   28.9500   15.3965    8.1449 H   0  0  0  0  0  0  0  0  0  0  0  0
   31.6356   13.7503    8.1225 H   0  0  0  0  0  0  0  0  0  0  0  0
   29.7983   10.6967    8.4918 H   0  0  0  0  0  0  0  0  0  0  0  0
   30.6033    8.4776    7.8272 H   0  0  0  0  0  0  0  0  0  0  0  0
   32.5968    8.2673    6.3932 H   0  0  0  0  0  0  0  0  0  0  0  0
   34.2480    9.3259    5.3675 H   0  0  0  0  0  0  0  0  0  0  0  0
   34.2220   12.4988    5.9093 H   0  0  0  0  0  0  0  0  0  0  0  0
   34.9041   15.3318    7.7823 H   0  0  0  0  0  0  0  0  0  0  0  0
   36.1101   14.0233    7.8258 H   0  0  0  0  0  0  0  0  0  0  0  0
   35.5302   15.9370    5.5943 H   0  0  0  0  0  0  0  0  0  0  0  0
  1  2  1  0
  2  3  2  0
  2  4  1  0
  4  5  1  0
  5  6  2  0
  6  7  1  0
  7  8  2  0
  8  9  1  0
  9 10  1  0
  9 11  2  0
 11 12  1  0
 12 13  1  0
 13 14  2  0
 13 15  1  0
 15 16  1  0
 11  5  1  0
  1 17  1  0
  1 18  1  0
  1 19  1  0
  4 20  1  0
  6 21  1  0
  7 22  1  0
  8 23  1  0
 10 24  1  0
 12 25  1  0
 15 26  1  0
 15 27  1  0
 16 28  1  0
M  END
