LIG
     RDKit          3D

 48 49  0  0  0  0  0  0  0  0999 V2000
   32.0349    7.9851    7.7997 C   0  0  0  0  0  0  0  0  0  0  0  0
   31.8282    9.3822    7.4543 C   0  0  0  0  0  0  0  0  0  0  0  0
   30.7732    9.9913    8.0868 C   0  0  0  0  0  0  0  0  0  0  0  0
   30.4527   11.2634    7.7243 C   0  0  0  0  0  0  0  0  0  0  0  0
   29.3020   11.6776    8.2720 O   0  0  0  0  0  0  0  0  0  0  0  0
   29.0814   13.0423    8.3272 C   0  0  0  0  0  0  0  0  0  0  0  0
   29.9748   13.8168    9.2879 C   0  0  0  0  0  0  0  0  0  0  0  0
   31.1706   13.6182    9.4746 O   0  0  0  0  0  0  0  0  0  0  0  0
   29.2812   14.7937    9.9804 N   0  0  0  0  0  0  0  0  0  0  0  0
   28.2360   15.5214    9.2737 C   0  0  0  0  0  0  0  0  0  0  0  0
   29.9705   15.3282   11.1455 C   0  0  0  0  0  0  0  0  0  0  0  0
   31.2062   11.9403    6.7831 C   0  0  0  0  0  0  0  0  0  0  0  0
   32.2935   11.3218    6.1727 C   0  0  0  0  0  0  0  0  0  0  0  0
   33.0624   11.8418    5.1780 O   0  0  0  0  0  0  0  0  0  0  0  0
   32.8518   13.2036    4.8481 C   0  0  0  0  0  0  0  0  0  0  0  0
   33.5115   14.0155    5.9329 C   0  0  0  0  0  0  0  0  0  0  0  0
   33.0856   13.9560    7.0899 O   0  0  0  0  0  0  0  0  0  0  0  0
   34.6123   14.7748    5.6220 N   0  0  0  0  0  0  0  0  0  0  0  0
   35.5378   14.9371    6.7322 C   0  0  0  0  0  0  0  0  0  0  0  0
   36.5567   13.7999    6.6250 C   0  0  0  0  0  0  0  0  0  0  0  0
   37.3105   13.9519    5.4023 O   0  0  0  0  0  0  0  0  0  0  0  0
   36.4336   13.8180    4.2660 C   0  0  0  0  0  0  0  0  0  0  0  0
   35.2986   14.8459    4.3244 C   0  0  0  0  0  0  0  0  0  0  0  0
   32.6077   10.0279    6.5079 C   0  0  0  0  0  0  0  0  0  0  0  0
   32.1422    7.8848    8.8811 H   0  0  0  0  0  0  0  0  0  0  0  0
   32.9183    7.6325    7.2867 H   0  0  0  0  0  0  0  0  0  0  0  0
   31.1664    7.4247    7.4802 H   0  0  0  0  0  0  0  0  0  0  0  0
   30.1661    9.4506    8.8079 H   0  0  0  0  0  0  0  0  0  0  0  0
   28.0511   13.0940    8.6906 H   0  0  0  0  0  0  0  0  0  0  0  0
   29.0823   13.5138    7.3378 H   0  0  0  0  0  0  0  0  0  0  0  0
   28.6537   16.4400    8.8545 H   0  0  0  0  0  0  0  0  0  0  0  0
   27.3903   15.6752    9.9328 H   0  0  0  0  0  0  0  0  0  0  0  0
   27.8316   15.0152    8.3966 H   0  0  0  0  0  0  0  0  0  0  0  0
   29.2379   15.5874   11.9114 H   0  0  0  0  0  0  0  0  0  0  0  0
   30.5927   16.1786   10.8555 H   0  0  0  0  0  0  0  0  0  0  0  0
   30.6263   14.5738   11.5826 H   0  0  0  0  0  0  0  0  0  0  0  0
   30.9162   12.9404    6.5055 H   0  0  0  0  0  0  0  0  0  0  0  0
   31.7999   13.4804    4.7252 H   0  0  0  0  0  0  0  0  0  0  0  0
   33.2987   13.3458    3.8673 H   0  0  0  0  0  0  0  0  0  0  0  0
   36.0164   15.9007    6.5919 H   0  0  0  0  0  0  0  0  0  0  0  0
   35.0445   14.9233    7.7078 H   0  0  0  0  0  0  0  0  0  0  0  0
   36.0588   12.8290    6.5912 H   0  0  0  0  0  0  0  0  0  0  0  0
   37.2532   13.7830    7.4663 H   0  0  0  0  0  0  0  0  0  0  0  0
   37.0330   13.9684    3.3628 H   0  0  0  0  0  0  0  0  0  0  0  0
   36.0413   12.7945    4.2424 H   0  0  0  0  0  0  0  0  0  0  0  0
   34.6076   14.7391    3.4876 H   0  0  0  0  0  0  0  0  0  0  0  0
   35.7451   15.8392    4.2377 H   0  0  0  0  0  0  0  0  0  0  0  0
   33.4291    9.5150    6.0154 H   0  0  0  0  0  0  0  0  0  0  0  0
  1  2  1  0
  2  3  2  0
  3  4  1  0
  4  5  1  0
  5  6  1  0
  6  7  1  0
  7  8  2  0
  7  9  1  0
  9 10  1  0
  9 11  1  0
  4 12  2  0
 12 13  1  0
 13 14  1  0
 14 15  1  0
 15 16  1  0
 16 17  2  0
 16 18  1  0
 18 19  1  0
 19 20  1  0
 20 21  1  0
 21 22  1  0
 22 23  1  0
 13 24  2  0
 24  2  1  0
 23 18  1  0
  1 25  1  0
  1 26  1  0
  1 27  1  0
  3 28  1  0
  6 29  1  0
  6 30  1  0
 10 31  1  0
 10 32  1  0
 10 33  1  0
 11 34  1  0
 11 35  1  0
 11 36  1  0
 12 37  1  0
 15 38  1  0
 15 39  1  0
 19 40  1  0
 19 41  1  0
 20 42  1  0
 20 43  1  0
 22 44  1  0
 22 45  1  0
 23 46  1  0
 23 47  1  0
 24 48  1  0
M  END
