LIG
     RDKit          3D

 40 41  0  0  0  0  0  0  0  0999 V2000
   34.4770    9.6170    4.1420 C   0  0  0  0  0  0  0  0  0  0  0  0
   34.7220   11.0190    4.6240 C   0  0  0  0  0  0  0  0  0  0  0  0
   35.7630   11.6170    4.3630 O   0  0  0  0  0  0  0  0  0  0  0  0
   33.6960   11.5950    5.3080 N   0  0  0  0  0  0  0  0  0  0  0  0
   32.6968   10.8623    7.2374 C   0  0  0  0  0  0  0  0  0  0  0  0
   31.8380   11.8440    8.5230 C   0  0  0  0  0  0  0  0  0  0  0  0
   32.8900   11.5720    7.6690 C   0  0  0  0  0  0  0  0  0  0  0  0
   33.3940   12.4720    6.7660 O   0  0  0  0  0  0  0  0  0  0  0  0
   32.5070   13.2300    6.0470 C   0  0  0  0  0  0  0  0  0  0  0  0
   32.8430   14.5690    6.5820 C   0  0  0  0  0  0  0  0  0  0  0  0
   32.2450   15.0040    7.5510 O   0  0  0  0  0  0  0  0  0  0  0  0
   33.9260   15.1770    6.0590 N   0  0  0  0  0  0  0  0  0  0  0  0
   34.7260   15.9040    7.0650 C   0  0  0  0  0  0  0  0  0  0  0  0
   36.2000   15.5640    6.9400 C   0  0  0  0  0  0  0  0  0  0  0  0
   36.6530   15.7410    5.6230 O   0  0  0  0  0  0  0  0  0  0  0  0
   35.9790   14.7950    4.8070 C   0  0  0  0  0  0  0  0  0  0  0  0
   34.5050   15.1130    4.7140 C   0  0  0  0  0  0  0  0  0  0  0  0
   33.3470   10.2740    7.4930 N   0  0  0  0  0  0  0  0  0  0  0  0
   32.6580    9.2460    8.1260 C   0  0  0  0  0  0  0  0  0  0  0  0
   31.5630    9.4800    8.9430 C   0  0  0  0  0  0  0  0  0  0  0  0
   30.8480    8.3410    9.6370 C   0  0  0  0  0  0  0  0  0  0  0  0
   34.3267    8.9576    5.0029 H   0  0  0  0  0  0  0  0  0  0  0  0
   33.4936    9.2814    4.4846 H   0  0  0  0  0  0  0  0  0  0  0  0
   33.5802    9.5607    3.5161 H   0  0  0  0  0  0  0  0  0  0  0  0
   33.4927   11.1758    6.2128 H   0  0  0  0  0  0  0  0  0  0  0  0
   31.9870   11.7162    9.5896 H   0  0  0  0  0  0  0  0  0  0  0  0
   32.8144   13.2129    5.0343 H   0  0  0  0  0  0  0  0  0  0  0  0
   31.5117   12.9441    6.1826 H   0  0  0  0  0  0  0  0  0  0  0  0
   34.5638   16.9669    6.8684 H   0  0  0  0  0  0  0  0  0  0  0  0
   34.3683   15.6788    8.0698 H   0  0  0  0  0  0  0  0  0  0  0  0
   36.3901   14.5265    7.2587 H   0  0  0  0  0  0  0  0  0  0  0  0
   36.7894   16.2165    7.6001 H   0  0  0  0  0  0  0  0  0  0  0  0
   36.4363   14.8216    3.8109 H   0  0  0  0  0  0  0  0  0  0  0  0
   36.1432   13.7890    5.2167 H   0  0  0  0  0  0  0  0  0  0  0  0
   34.3480   16.0926    4.2633 H   0  0  0  0  0  0  0  0  0  0  0  0
   34.0035   14.3562    4.1192 H   0  0  0  0  0  0  0  0  0  0  0  0
   33.0605    8.2773    7.9459 H   0  0  0  0  0  0  0  0  0  0  0  0
   30.8847    7.4293    9.0387 H   0  0  0  0  0  0  0  0  0  0  0  0
   31.2699    8.1776   10.6295 H   0  0  0  0  0  0  0  0  0  0  0  0
   31.5513    7.5342    9.8636 H   0  0  0  0  0  0  0  0  0  0  0  0
  1  2  1  0
  2  3  2  0
  2  4  1  0
  4  5  1  0
  5  6  4  0
  6  7  4  0
  7  8  1  0
  8  9  1  0
  9 10  1  0
 10 11  2  0
 10 12  1  0
 12 13  1  0
 13 14  1  0
 14 15  1  0
 15 16  1  0
 16 17  1  0
  7 18  4  0
 18 19  4  0
 19 20  4  0
 20 21  1  0
 20  5  4  0
 17 12  1  0
  1 22  1  0
  1 23  1  0
  1 24  1  0
  4 25  1  0
  6 26  1  0
  9 27  1  0
  9 28  1  0
 13 29  1  0
 13 30  1  0
 14 31  1  0
 14 32  1  0
 16 33  1  0
 16 34  1  0
 17 35  1  0
 17 36  1  0
 19 37  1  0
 21 38  1  0
 21 39  1  0
 21 40  1  0
M  END
