LIG
     RDKit          3D

 48 49  0  0  0  0  0  0  0  0999 V2000
   33.8040    9.2943    5.7531 C   0  0  0  0  0  0  0  0  0  0  0  0
   32.6593    9.9210    6.4917 C   0  0  0  0  0  0  0  0  0  0  0  0
   31.8804    9.1966    7.4013 C   0  0  0  0  0  0  0  0  0  0  0  0
   30.8484    9.8218    8.1052 C   0  0  0  0  0  0  0  0  0  0  0  0
   30.5675   11.1681    7.8882 C   0  0  0  0  0  0  0  0  0  0  0  0
   29.5095   11.6993    8.5461 O   0  0  0  0  0  0  0  0  0  0  0  0
   29.3361   13.1075    8.6572 C   0  0  0  0  0  0  0  0  0  0  0  0
   30.3459   13.8833    9.5422 C   0  0  0  0  0  0  0  0  0  0  0  0
   31.5628   13.7169    9.4317 O   0  0  0  0  0  0  0  0  0  0  0  0
   29.8540   14.8284   10.4351 N   0  0  0  0  0  0  0  0  0  0  0  0
   28.5309   14.6686   10.9983 C   0  0  0  0  0  0  0  0  0  0  0  0
   30.8216   15.5395   11.2552 C   0  0  0  0  0  0  0  0  0  0  0  0
   31.2987   11.8639    6.9498 C   0  0  0  0  0  0  0  0  0  0  0  0
   32.3276   11.2508    6.2402 C   0  0  0  0  0  0  0  0  0  0  0  0
   33.0292   11.8446    5.2268 O   0  0  0  0  0  0  0  0  0  0  0  0
   32.7657   13.2105    4.9490 C   0  0  0  0  0  0  0  0  0  0  0  0
   33.5220   14.0064    5.9791 C   0  0  0  0  0  0  0  0  0  0  0  0
   33.1968   13.9349    7.1648 O   0  0  0  0  0  0  0  0  0  0  0  0
   34.6041   14.7595    5.5933 N   0  0  0  0  0  0  0  0  0  0  0  0
   35.5893   14.9367    6.6499 C   0  0  0  0  0  0  0  0  0  0  0  0
   36.5968   13.7924    6.5062 C   0  0  0  0  0  0  0  0  0  0  0  0
   37.2850   13.9255    5.2407 O   0  0  0  0  0  0  0  0  0  0  0  0
   36.3436   13.7830    4.1580 C   0  0  0  0  0  0  0  0  0  0  0  0
   35.2142   14.8139    4.2625 C   0  0  0  0  0  0  0  0  0  0  0  0
   34.6414    9.9910    5.6459 H   0  0  0  0  0  0  0  0  0  0  0  0
   34.1834    8.4215    6.2799 H   0  0  0  0  0  0  0  0  0  0  0  0
   33.4883    8.9876    4.7535 H   0  0  0  0  0  0  0  0  0  0  0  0
   32.0694    8.1431    7.5847 H   0  0  0  0  0  0  0  0  0  0  0  0
   30.2534    9.2524    8.8145 H   0  0  0  0  0  0  0  0  0  0  0  0
   29.3139   13.5834    7.6696 H   0  0  0  0  0  0  0  0  0  0  0  0
   28.3195   13.2421    9.0276 H   0  0  0  0  0  0  0  0  0  0  0  0
   28.4828   15.1688   11.9664 H   0  0  0  0  0  0  0  0  0  0  0  0
   27.8050   15.0813   10.2948 H   0  0  0  0  0  0  0  0  0  0  0  0
   28.2951   13.6196   11.1673 H   0  0  0  0  0  0  0  0  0  0  0  0
   30.4409   16.5049   11.5822 H   0  0  0  0  0  0  0  0  0  0  0  0
   31.7564   15.7048   10.7141 H   0  0  0  0  0  0  0  0  0  0  0  0
   31.0230   14.9341   12.1321 H   0  0  0  0  0  0  0  0  0  0  0  0
   31.0456   12.8962    6.7722 H   0  0  0  0  0  0  0  0  0  0  0  0
   33.1111   13.3847    3.9327 H   0  0  0  0  0  0  0  0  0  0  0  0
   31.7039   13.4752    4.9335 H   0  0  0  0  0  0  0  0  0  0  0  0
   35.1517   14.9445    7.6516 H   0  0  0  0  0  0  0  0  0  0  0  0
   36.0685   15.8941    6.4678 H   0  0  0  0  0  0  0  0  0  0  0  0
   36.0978   12.8204    6.5165 H   0  0  0  0  0  0  0  0  0  0  0  0
   37.3409   13.7827    7.3050 H   0  0  0  0  0  0  0  0  0  0  0  0
   36.8920   13.9192    3.2208 H   0  0  0  0  0  0  0  0  0  0  0  0
   35.9479   12.7604    4.1689 H   0  0  0  0  0  0  0  0  0  0  0  0
   34.4801   14.6906    3.4660 H   0  0  0  0  0  0  0  0  0  0  0  0
   35.6500   15.8088    4.1384 H   0  0  0  0  0  0  0  0  0  0  0  0
  1  2  1  0
  2  3  2  0
  3  4  1  0
  4  5  2  0
  5  6  1  0
  6  7  1  0
  7  8  1  0
  8  9  2  0
  8 10  1  0
 10 11  1  0
 10 12  1  0
  5 13  1  0
 13 14  2  0
 14 15  1  0
 15 16  1  0
 16 17  1  0
 17 18  2  0
 17 19  1  0
 19 20  1  0
 20 21  1  0
 21 22  1  0
 22 23  1  0
 23 24  1  0
 14  2  1  0
 24 19  1  0
  1 25  1  0
  1 26  1  0
  1 27  1  0
  3 28  1  0
  4 29  1  0
  7 30  1  0
  7 31  1  0
 11 32  1  0
 11 33  1  0
 11 34  1  0
 12 35  1  0
 12 36  1  0
 12 37  1  0
 13 38  1  0
 16 39  1  0
 16 40  1  0
 20 41  1  0
 20 42  1  0
 21 43  1  0
 21 44  1  0
 23 45  1  0
 23 46  1  0
 24 47  1  0
 24 48  1  0
M  END
