LIG
     RDKit          3D

 28 28  0  0  0  0  0  0  0  0999 V2000
   28.5340   14.0390    8.5970 C   0  0  0  0  0  0  0  0  0  0  0  0
   29.3000   13.3530    7.8990 C   0  0  0  0  0  0  0  0  0  0  0  0
   29.3990   13.5140    6.5850 O   0  0  0  0  0  0  0  0  0  0  0  0
   31.1650   13.3330    8.0150 N   0  0  0  0  0  0  0  0  0  0  0  0
   31.5450   11.9340    7.6020 C   0  0  0  0  0  0  0  0  0  0  0  0
   30.7220   10.8640    7.9390 C   0  0  0  0  0  0  0  0  0  0  0  0
   31.0170    9.5590    7.5720 C   0  0  0  0  0  0  0  0  0  0  0  0
   32.1560    9.3390    6.8090 C   0  0  0  0  0  0  0  0  0  0  0  0
   33.0110   10.3720    6.4380 C   0  0  0  0  0  0  0  0  0  0  0  0
   34.1980   10.0910    5.5530 O   0  0  0  0  0  0  0  0  0  0  0  0
   32.7080   11.6650    6.8730 C   0  0  0  0  0  0  0  0  0  0  0  0
   33.6520   12.7090    6.6590 N   0  0  0  0  0  0  0  0  0  0  0  0
   34.4250   13.2280    7.6390 C   0  0  0  0  0  0  0  0  0  0  0  0
   34.9120   12.5690    8.5560 O   0  0  0  0  0  0  0  0  0  0  0  0
   34.6680   14.7180    7.5670 C   0  0  0  0  0  0  0  0  0  0  0  0
   35.0470   15.1300    6.2680 S   0  0  0  0  0  0  0  0  0  0  0  0
   28.4853   15.1566    8.3483 H   0  0  0  0  0  0  0  0  0  0  0  0
   27.7047   14.5958    8.0364 H   0  0  0  0  0  0  0  0  0  0  0  0
   27.4274   13.7459    8.5620 H   0  0  0  0  0  0  0  0  0  0  0  0
   31.4533   13.9837    8.2334 H   0  0  0  0  0  0  0  0  0  0  0  0
   29.8015   11.0127    8.5087 H   0  0  0  0  0  0  0  0  0  0  0  0
   30.3828    8.7449    7.8697 H   0  0  0  0  0  0  0  0  0  0  0  0
   32.3741    8.2974    6.4964 H   0  0  0  0  0  0  0  0  0  0  0  0
   34.1480    9.1557    5.3701 H   0  0  0  0  0  0  0  0  0  0  0  0
   33.6634   13.0810    5.7797 H   0  0  0  0  0  0  0  0  0  0  0  0
   35.4015   14.8951    8.4277 H   0  0  0  0  0  0  0  0  0  0  0  0
   33.6975   15.1522    7.9829 H   0  0  0  0  0  0  0  0  0  0  0  0
   35.6109   14.0100    5.6958 H   0  0  0  0  0  0  0  0  0  0  0  0
  1  2  1  0
  2  3  2  0
  2  4  1  0
  4  5  1  0
  5  6  4  0
  6  7  4  0
  7  8  4  0
  8  9  4  0
  9 10  1  0
  9 11  4  0
 11 12  1  0
 12 13  1  0
 13 14  2  0
 13 15  1  0
 15 16  1  0
 11  5  4  0
  1 17  1  0
  1 18  1  0
  1 19  1  0
  4 20  1  0
  6 21  1  0
  7 22  1  0
  8 23  1  0
 10 24  1  0
 12 25  1  0
 15 26  1  0
 15 27  1  0
 16 28  1  0
M  END
