LIG
     RDKit          3D

 45 47  0  0  0  0  0  0  0  0999 V2000
   33.7882    9.1002    5.6997 C   0  0  0  0  0  0  0  0  0  0  0  0
   32.8654   10.1713    6.1766 C   0  0  0  0  0  0  0  0  0  0  0  0
   31.8451    9.8356    7.0849 C   0  0  0  0  0  0  0  0  0  0  0  0
   30.9262   10.7952    7.4958 C   0  0  0  0  0  0  0  0  0  0  0  0
   31.0458   12.0931    7.0166 C   0  0  0  0  0  0  0  0  0  0  0  0
   30.1565   13.1053    7.2100 O   0  0  0  0  0  0  0  0  0  0  0  0
   29.8556   13.2686    8.5630 C   0  0  0  0  0  0  0  0  0  0  0  0
   28.3683   13.5009    8.7281 C   0  0  0  0  0  0  0  0  0  0  0  0
   28.2756   14.9469    9.1190 C   0  0  0  0  0  0  0  0  0  0  0  0
   29.5043   15.2229    9.8240 N   0  0  0  0  0  0  0  0  0  0  0  0
   29.5388   15.1133   11.2682 C   0  0  0  0  0  0  0  0  0  0  0  0
   30.5121   14.4580    9.2401 C   0  0  0  0  0  0  0  0  0  0  0  0
   31.7077   14.6744    9.3644 O   0  0  0  0  0  0  0  0  0  0  0  0
   32.0669   12.4371    6.1649 C   0  0  0  0  0  0  0  0  0  0  0  0
   32.9577   11.4857    5.6969 C   0  0  0  0  0  0  0  0  0  0  0  0
   33.8118   11.8228    4.6301 N   0  0  0  0  0  0  0  0  0  0  0  0
   33.8256   13.0813    4.0416 C   0  0  0  0  0  0  0  0  0  0  0  0
   33.7139   14.1529    4.6283 O   0  0  0  0  0  0  0  0  0  0  0  0
   33.8365   12.9671    2.5163 C   0  0  0  0  0  0  0  0  0  0  0  0
   33.6315   14.2914    1.8031 C   0  0  0  0  0  0  0  0  0  0  0  0
   35.0441   14.7067    1.4987 C   0  0  0  0  0  0  0  0  0  0  0  0
   35.7159   13.3785    1.2292 C   0  0  0  0  0  0  0  0  0  0  0  0
   35.0698   12.4031    2.0586 O   0  0  0  0  0  0  0  0  0  0  0  0
   33.4756    8.7281    4.7248 H   0  0  0  0  0  0  0  0  0  0  0  0
   34.8081    9.4794    5.5939 H   0  0  0  0  0  0  0  0  0  0  0  0
   33.8248    8.2898    6.4198 H   0  0  0  0  0  0  0  0  0  0  0  0
   31.7379    8.8146    7.4495 H   0  0  0  0  0  0  0  0  0  0  0  0
   30.1045   10.4974    8.1411 H   0  0  0  0  0  0  0  0  0  0  0  0
   30.1473   12.4066    9.1515 H   0  0  0  0  0  0  0  0  0  0  0  0
   28.0094   12.8948    9.5594 H   0  0  0  0  0  0  0  0  0  0  0  0
   27.7788   13.2658    7.8376 H   0  0  0  0  0  0  0  0  0  0  0  0
   27.4017   15.2011    9.7180 H   0  0  0  0  0  0  0  0  0  0  0  0
   28.2731   15.5761    8.2208 H   0  0  0  0  0  0  0  0  0  0  0  0
   30.3014   15.7983   11.6501 H   0  0  0  0  0  0  0  0  0  0  0  0
   29.8236   14.1025   11.5676 H   0  0  0  0  0  0  0  0  0  0  0  0
   28.5727   15.3190   11.7195 H   0  0  0  0  0  0  0  0  0  0  0  0
   32.0750   13.4672    5.8330 H   0  0  0  0  0  0  0  0  0  0  0  0
   34.2813   11.0810    4.1273 H   0  0  0  0  0  0  0  0  0  0  0  0
   33.0241   12.2819    2.2420 H   0  0  0  0  0  0  0  0  0  0  0  0
   33.0961   14.1206    0.8607 H   0  0  0  0  0  0  0  0  0  0  0  0
   33.0721   15.0407    2.3699 H   0  0  0  0  0  0  0  0  0  0  0  0
   35.4911   15.1780    2.3821 H   0  0  0  0  0  0  0  0  0  0  0  0
   35.1275   15.4042    0.6612 H   0  0  0  0  0  0  0  0  0  0  0  0
   35.5800   13.0720    0.1863 H   0  0  0  0  0  0  0  0  0  0  0  0
   36.7870   13.3969    1.4492 H   0  0  0  0  0  0  0  0  0  0  0  0
  1  2  1  0
  2  3  2  0
  3  4  1  0
  4  5  2  0
  5  6  1  0
  6  7  1  0
  7  8  1  0
  8  9  1  0
  9 10  1  0
 10 11  1  0
 10 12  1  0
 12 13  2  0
  5 14  1  0
 14 15  2  0
 15 16  1  0
 16 17  1  0
 17 18  2  0
 17 19  1  0
 19 20  1  0
 20 21  1  0
 21 22  1  0
 22 23  1  0
 15  2  1  0
 23 19  1  0
 12  7  1  0
  1 24  1  0
  1 25  1  0
  1 26  1  0
  3 27  1  0
  4 28  1  0
  7 29  1  0
  8 30  1  0
  8 31  1  0
  9 32  1  0
  9 33  1  0
 11 34  1  0
 11 35  1  0
 11 36  1  0
 14 37  1  0
 16 38  1  0
 19 39  1  0
 20 40  1  0
 20 41  1  0
 21 42  1  0
 21 43  1  0
 22 44  1  0
 22 45  1  0
M  END
