LIG
     RDKit          3D

 40 41  0  0  0  0  0  0  0  0999 V2000
   31.0405    8.2887    8.0224 C   0  0  0  0  0  0  0  0  0  0  0  0
   31.6036    9.4940    7.3559 C   0  0  0  0  0  0  0  0  0  0  0  0
   31.1667   10.7117    7.8020 C   0  0  0  0  0  0  0  0  0  0  0  0
   31.8131   11.8512    7.3567 C   0  0  0  0  0  0  0  0  0  0  0  0
   31.4133   13.1331    7.6603 O   0  0  0  0  0  0  0  0  0  0  0  0
   30.1460   13.1882    8.2415 C   0  0  0  0  0  0  0  0  0  0  0  0
   29.0417   12.9072    7.2096 C   0  0  0  0  0  0  0  0  0  0  0  0
   28.1786   14.1303    7.2425 C   0  0  0  0  0  0  0  0  0  0  0  0
   28.4081   14.6448    8.5534 N   0  0  0  0  0  0  0  0  0  0  0  0
   27.7072   15.7678    9.0208 C   0  0  0  0  0  0  0  0  0  0  0  0
   29.7507   14.4866    8.8929 C   0  0  0  0  0  0  0  0  0  0  0  0
   30.4251   15.2181    9.6002 O   0  0  0  0  0  0  0  0  0  0  0  0
   32.9393   11.7232    6.5439 C   0  0  0  0  0  0  0  0  0  0  0  0
   33.7995   12.8264    6.3887 N   0  0  0  0  0  0  0  0  0  0  0  0
   34.2765   13.4653    7.5365 C   0  0  0  0  0  0  0  0  0  0  0  0
   34.0216   13.1474    8.7005 O   0  0  0  0  0  0  0  0  0  0  0  0
   35.2193   14.6116    7.2121 C   0  0  0  0  0  0  0  0  0  0  0  0
   35.2876   14.9311    5.8294 O   0  0  0  0  0  0  0  0  0  0  0  0
   33.2242   10.4700    6.0097 C   0  0  0  0  0  0  0  0  0  0  0  0
   34.3238   10.2507    5.0193 C   0  0  0  0  0  0  0  0  0  0  0  0
   32.5600    9.3582    6.4115 N   0  0  0  0  0  0  0  0  0  0  0  0
   31.3699    7.4247    7.4624 H   0  0  0  0  0  0  0  0  0  0  0  0
   31.4116    8.2076    9.0460 H   0  0  0  0  0  0  0  0  0  0  0  0
   29.9476    8.3153    8.0491 H   0  0  0  0  0  0  0  0  0  0  0  0
   30.3631   10.7009    8.5257 H   0  0  0  0  0  0  0  0  0  0  0  0
   30.0751   12.5082    9.0840 H   0  0  0  0  0  0  0  0  0  0  0  0
   28.4598   12.0334    7.5190 H   0  0  0  0  0  0  0  0  0  0  0  0
   29.4104   12.7116    6.1975 H   0  0  0  0  0  0  0  0  0  0  0  0
   27.1260   13.8911    7.0859 H   0  0  0  0  0  0  0  0  0  0  0  0
   28.5145   14.8670    6.5062 H   0  0  0  0  0  0  0  0  0  0  0  0
   28.2128   16.6716    8.6819 H   0  0  0  0  0  0  0  0  0  0  0  0
   26.6798   15.7103    8.6835 H   0  0  0  0  0  0  0  0  0  0  0  0
   27.7038   15.6476   10.0968 H   0  0  0  0  0  0  0  0  0  0  0  0
   34.4803   12.8444    5.6358 H   0  0  0  0  0  0  0  0  0  0  0  0
   34.8516   15.4760    7.7592 H   0  0  0  0  0  0  0  0  0  0  0  0
   36.2157   14.3348    7.5605 H   0  0  0  0  0  0  0  0  0  0  0  0
   35.2634   15.9134    5.7572 H   0  0  0  0  0  0  0  0  0  0  0  0
   34.0788   10.7504    4.0768 H   0  0  0  0  0  0  0  0  0  0  0  0
   34.4549    9.1837    4.8108 H   0  0  0  0  0  0  0  0  0  0  0  0
   35.2761   10.6394    5.3882 H   0  0  0  0  0  0  0  0  0  0  0  0
  1  2  1  0
  2  3  2  0
  3  4  1  0
  4  5  1  0
  5  6  1  0
  6  7  1  0
  7  8  1  0
  8  9  1  0
  9 10  1  0
  9 11  1  0
 11 12  2  0
  4 13  2  0
 13 14  1  0
 14 15  1  0
 15 16  2  0
 15 17  1  0
 17 18  1  0
 13 19  1  0
 19 20  1  0
 19 21  2  0
 21  2  1  0
 11  6  1  0
  1 22  1  0
  1 23  1  0
  1 24  1  0
  3 25  1  0
  6 26  1  0
  7 27  1  0
  7 28  1  0
  8 29  1  0
  8 30  1  0
 10 31  1  0
 10 32  1  0
 10 33  1  0
 14 34  1  0
 17 35  1  0
 17 36  1  0
 18 37  1  0
 20 38  1  0
 20 39  1  0
 20 40  1  0
M  END
