LIG
     RDKit          3D

 37 37  0  0  0  0  0  0  0  0999 V2000
   30.1703    8.9562    8.4606 C   0  0  0  0  0  0  0  0  0  0  0  0
   30.9143   10.0485    7.7558 C   0  0  0  0  0  0  0  0  0  0  0  0
   31.9682    9.6947    6.8992 C   0  0  0  0  0  0  0  0  0  0  0  0
   32.7761   10.6699    6.3214 C   0  0  0  0  0  0  0  0  0  0  0  0
   32.5636   12.0004    6.6627 C   0  0  0  0  0  0  0  0  0  0  0  0
   33.5604   12.9422    6.3908 N   0  0  0  0  0  0  0  0  0  0  0  0
   34.2275   13.5476    7.4621 C   0  0  0  0  0  0  0  0  0  0  0  0
   33.9435   13.4228    8.6523 O   0  0  0  0  0  0  0  0  0  0  0  0
   35.4168   14.3673    6.9806 C   0  0  0  0  0  0  0  0  0  0  0  0
   35.8736   13.7652    5.7615 O   0  0  0  0  0  0  0  0  0  0  0  0
   37.1941   14.1279    5.3923 C   0  0  0  0  0  0  0  0  0  0  0  0
   37.3405   15.4989    4.7328 C   0  0  0  0  0  0  0  0  0  0  0  0
   36.3483   16.0939    4.3391 O   0  0  0  0  0  0  0  0  0  0  0  0
   38.6178   16.0286    4.5636 N   0  0  0  0  0  0  0  0  0  0  0  0
   38.7158   17.4061    4.0854 C   0  0  0  0  0  0  0  0  0  0  0  0
   39.7535   15.1782    4.2960 C   0  0  0  0  0  0  0  0  0  0  0  0
   31.4374   12.3784    7.3786 C   0  0  0  0  0  0  0  0  0  0  0  0
   30.6034   11.4024    7.8929 C   0  0  0  0  0  0  0  0  0  0  0  0
   29.4941   11.8718    8.5164 O   0  0  0  0  0  0  0  0  0  0  0  0
   30.0073    9.2158    9.5088 H   0  0  0  0  0  0  0  0  0  0  0  0
   29.2223    8.7424    7.9681 H   0  0  0  0  0  0  0  0  0  0  0  0
   30.7573    8.0345    8.4682 H   0  0  0  0  0  0  0  0  0  0  0  0
   32.2032    8.6452    6.7349 H   0  0  0  0  0  0  0  0  0  0  0  0
   33.6408   10.3693    5.7385 H   0  0  0  0  0  0  0  0  0  0  0  0
   34.2348   12.7254    5.6594 H   0  0  0  0  0  0  0  0  0  0  0  0
   36.1905   14.3058    7.7511 H   0  0  0  0  0  0  0  0  0  0  0  0
   35.1088   15.3989    6.8045 H   0  0  0  0  0  0  0  0  0  0  0  0
   37.8742   14.0066    6.2391 H   0  0  0  0  0  0  0  0  0  0  0  0
   37.5016   13.3964    4.6358 H   0  0  0  0  0  0  0  0  0  0  0  0
   37.8727   18.0133    4.4283 H   0  0  0  0  0  0  0  0  0  0  0  0
   39.6500   17.8500    4.4372 H   0  0  0  0  0  0  0  0  0  0  0  0
   38.7097   17.3924    2.9909 H   0  0  0  0  0  0  0  0  0  0  0  0
   39.7244   14.8834    3.2423 H   0  0  0  0  0  0  0  0  0  0  0  0
   39.7310   14.2732    4.9067 H   0  0  0  0  0  0  0  0  0  0  0  0
   40.6840   15.7187    4.4913 H   0  0  0  0  0  0  0  0  0  0  0  0
   31.2324   13.4223    7.5937 H   0  0  0  0  0  0  0  0  0  0  0  0
   29.4415   11.5055    9.4252 H   0  0  0  0  0  0  0  0  0  0  0  0
  1  2  1  0
  2  3  2  0
  3  4  1  0
  4  5  2  0
  5  6  1  0
  6  7  1  0
  7  8  2  0
  7  9  1  0
  9 10  1  0
 10 11  1  0
 11 12  1  0
 12 13  2  0
 12 14  1  0
 14 15  1  0
 14 16  1  0
  5 17  1  0
 17 18  2  0
 18 19  1  0
 18  2  1  0
  1 20  1  0
  1 21  1  0
  1 22  1  0
  3 23  1  0
  4 24  1  0
  6 25  1  0
  9 26  1  0
  9 27  1  0
 11 28  1  0
 11 29  1  0
 15 30  1  0
 15 31  1  0
 15 32  1  0
 16 33  1  0
 16 34  1  0
 16 35  1  0
 17 36  1  0
 19 37  1  0
M  END
