LIG
     RDKit          3D

 34 34  0  0  0  0  0  0  0  0999 V2000
    4.3844    1.6168    0.2868 C   0  0  0  0  0  0  0  0  0  0  0  0
    4.1012    0.3800   -0.4259 N   0  0  0  0  0  0  0  0  0  0  0  0
    5.0569    0.0033   -1.4554 C   0  0  0  0  0  0  0  0  0  0  0  0
    3.2239   -0.5993    0.0449 C   0  0  0  0  0  0  0  0  0  0  0  0
    3.1502   -1.7150   -0.4772 O   0  0  0  0  0  0  0  0  0  0  0  0
    2.3252   -0.2193    1.2430 C   0  0  0  0  0  0  0  0  0  0  0  0
    1.5166   -1.2525    1.7910 O   0  0  0  0  0  0  0  0  0  0  0  0
    0.4124   -1.6120    0.9779 C   0  0  0  0  0  0  0  0  0  0  0  0
   -0.7692   -0.6219    0.9144 C   0  0  0  0  0  0  0  0  0  0  0  0
   -0.7434    0.4649    1.4843 O   0  0  0  0  0  0  0  0  0  0  0  0
   -1.8098   -1.1140    0.1356 N   0  0  0  0  0  0  0  0  0  0  0  0
   -3.0420   -0.4883   -0.1502 C   0  0  0  0  0  0  0  0  0  0  0  0
   -3.9272   -1.1787   -0.9917 C   0  0  0  0  0  0  0  0  0  0  0  0
   -5.1674   -0.6298   -1.3284 C   0  0  0  0  0  0  0  0  0  0  0  0
   -5.5358    0.6138   -0.8237 C   0  0  0  0  0  0  0  0  0  0  0  0
   -4.6611    1.2967    0.0108 C   0  0  0  0  0  0  0  0  0  0  0  0
   -5.0570    2.5145    0.4833 O   0  0  0  0  0  0  0  0  0  0  0  0
   -3.4198    0.7588    0.3519 C   0  0  0  0  0  0  0  0  0  0  0  0
    3.5069    1.9872    0.8194 H   0  0  0  0  0  0  0  0  0  0  0  0
    4.7004    2.3842   -0.4259 H   0  0  0  0  0  0  0  0  0  0  0  0
    5.1876    1.4280    1.0048 H   0  0  0  0  0  0  0  0  0  0  0  0
    4.7004   -0.8419   -2.0501 H   0  0  0  0  0  0  0  0  0  0  0  0
    5.2194    0.8540   -2.1235 H   0  0  0  0  0  0  0  0  0  0  0  0
    5.9996   -0.2730   -0.9731 H   0  0  0  0  0  0  0  0  0  0  0  0
    1.7052    0.6354    0.9573 H   0  0  0  0  0  0  0  0  0  0  0  0
    2.9867    0.0976    2.0567 H   0  0  0  0  0  0  0  0  0  0  0  0
    0.0172   -2.5470    1.3936 H   0  0  0  0  0  0  0  0  0  0  0  0
    0.7354   -1.8296   -0.0451 H   0  0  0  0  0  0  0  0  0  0  0  0
   -1.6683   -2.0231   -0.2891 H   0  0  0  0  0  0  0  0  0  0  0  0
   -3.6645   -2.1510   -1.4019 H   0  0  0  0  0  0  0  0  0  0  0  0
   -5.8448   -1.1712   -1.9835 H   0  0  0  0  0  0  0  0  0  0  0  0
   -6.4975    1.0492   -1.0787 H   0  0  0  0  0  0  0  0  0  0  0  0
   -4.3556    2.8617    1.0607 H   0  0  0  0  0  0  0  0  0  0  0  0
   -2.7662    1.3217    1.0071 H   0  0  0  0  0  0  0  0  0  0  0  0
  1  2  1  0
  2  3  1  0
  2  4  1  0
  4  5  2  0
  4  6  1  0
  6  7  1  0
  7  8  1  0
  8  9  1  0
  9 10  2  0
  9 11  1  0
 11 12  1  0
 12 13  2  0
 13 14  1  0
 14 15  2  0
 15 16  1  0
 16 17  1  0
 16 18  2  0
 18 12  1  0
  1 19  1  0
  1 20  1  0
  1 21  1  0
  3 22  1  0
  3 23  1  0
  3 24  1  0
  6 25  1  0
  6 26  1  0
  8 27  1  0
  8 28  1  0
 11 29  1  0
 13 30  1  0
 14 31  1  0
 15 32  1  0
 17 33  1  0
 18 34  1  0
M  END
