LIG
     RDKit          3D

 49 51  0  0  0  0  0  0  0  0999 V2000
    0.7367   -0.3506   -4.4656 C   0  0  0  0  0  0  0  0  0  0  0  0
   -0.1558   -1.2000   -3.6091 C   0  0  0  0  0  0  0  0  0  0  0  0
   -0.7072   -2.3852   -4.1187 C   0  0  0  0  0  0  0  0  0  0  0  0
   -1.5371   -3.1857   -3.3277 C   0  0  0  0  0  0  0  0  0  0  0  0
   -1.8376   -2.8068   -2.0206 C   0  0  0  0  0  0  0  0  0  0  0  0
   -1.3077   -1.6230   -1.5104 C   0  0  0  0  0  0  0  0  0  0  0  0
   -1.5865   -1.2520   -0.2222 O   0  0  0  0  0  0  0  0  0  0  0  0
   -2.9138   -0.7327   -0.1091 C   0  0  0  0  0  0  0  0  0  0  0  0
   -2.8869    0.7871    0.0569 C   0  0  0  0  0  0  0  0  0  0  0  0
   -2.6809    0.9716    1.5471 C   0  0  0  0  0  0  0  0  0  0  0  0
   -3.4299   -0.1214    2.1155 N   0  0  0  0  0  0  0  0  0  0  0  0
   -3.5598   -0.2863    3.5426 C   0  0  0  0  0  0  0  0  0  0  0  0
   -3.4800   -1.1981    1.2306 C   0  0  0  0  0  0  0  0  0  0  0  0
   -3.8591   -2.3309    1.4881 O   0  0  0  0  0  0  0  0  0  0  0  0
   -0.4342   -0.8468   -2.2822 C   0  0  0  0  0  0  0  0  0  0  0  0
    0.0991    0.3109   -1.7758 O   0  0  0  0  0  0  0  0  0  0  0  0
    1.1564    0.0290   -0.8577 C   0  0  0  0  0  0  0  0  0  0  0  0
    1.2779    1.1264    0.2095 C   0  0  0  0  0  0  0  0  0  0  0  0
    0.4182    1.9972    0.3591 O   0  0  0  0  0  0  0  0  0  0  0  0
    2.4146    1.0906    1.0100 N   0  0  0  0  0  0  0  0  0  0  0  0
    3.4497    0.0533    0.9583 C   0  0  0  0  0  0  0  0  0  0  0  0
    4.2404   -0.0070    2.2689 C   0  0  0  0  0  0  0  0  0  0  0  0
    4.8703    1.2346    2.6069 O   0  0  0  0  0  0  0  0  0  0  0  0
    4.1323    2.3977    2.2047 C   0  0  0  0  0  0  0  0  0  0  0  0
    2.6354    2.1492    1.9968 C   0  0  0  0  0  0  0  0  0  0  0  0
    1.7708   -0.4170   -4.1129 H   0  0  0  0  0  0  0  0  0  0  0  0
    0.4099    0.6934   -4.4418 H   0  0  0  0  0  0  0  0  0  0  0  0
    0.7134   -0.6748   -5.5111 H   0  0  0  0  0  0  0  0  0  0  0  0
   -0.4940   -2.6949   -5.1399 H   0  0  0  0  0  0  0  0  0  0  0  0
   -1.9513   -4.1047   -3.7335 H   0  0  0  0  0  0  0  0  0  0  0  0
   -2.4801   -3.4303   -1.4041 H   0  0  0  0  0  0  0  0  0  0  0  0
   -3.5901   -1.0338   -0.9185 H   0  0  0  0  0  0  0  0  0  0  0  0
   -2.1137    1.2879   -0.5295 H   0  0  0  0  0  0  0  0  0  0  0  0
   -3.8626    1.2007   -0.2294 H   0  0  0  0  0  0  0  0  0  0  0  0
   -3.0685    1.9273    1.9068 H   0  0  0  0  0  0  0  0  0  0  0  0
   -1.6284    0.8626    1.8306 H   0  0  0  0  0  0  0  0  0  0  0  0
   -2.5729   -0.4939    3.9659 H   0  0  0  0  0  0  0  0  0  0  0  0
   -4.2262   -1.1239    3.7664 H   0  0  0  0  0  0  0  0  0  0  0  0
   -3.9675    0.6312    3.9753 H   0  0  0  0  0  0  0  0  0  0  0  0
    1.0171   -0.9239   -0.3329 H   0  0  0  0  0  0  0  0  0  0  0  0
    2.0901   -0.0054   -1.4304 H   0  0  0  0  0  0  0  0  0  0  0  0
    4.1152    0.3158    0.1275 H   0  0  0  0  0  0  0  0  0  0  0  0
    2.9965   -0.9194    0.7479 H   0  0  0  0  0  0  0  0  0  0  0  0
    3.5819   -0.2848    3.1008 H   0  0  0  0  0  0  0  0  0  0  0  0
    5.0242   -0.7684    2.2025 H   0  0  0  0  0  0  0  0  0  0  0  0
    4.2867    3.1666    2.9683 H   0  0  0  0  0  0  0  0  0  0  0  0
    4.5844    2.7629    1.2757 H   0  0  0  0  0  0  0  0  0  0  0  0
    2.1753    1.8067    2.9314 H   0  0  0  0  0  0  0  0  0  0  0  0
    2.1351    3.0730    1.6894 H   0  0  0  0  0  0  0  0  0  0  0  0
  1  2  1  0
  2  3  2  0
  3  4  1  0
  4  5  2  0
  5  6  1  0
  6  7  1  0
  7  8  1  0
  8  9  1  0
  9 10  1  0
 10 11  1  0
 11 12  1  0
 11 13  1  0
 13 14  2  0
  6 15  2  0
 15 16  1  0
 16 17  1  0
 17 18  1  0
 18 19  2  0
 18 20  1  0
 20 21  1  0
 21 22  1  0
 22 23  1  0
 23 24  1  0
 24 25  1  0
 15  2  1  0
 25 20  1  0
 13  8  1  0
  1 26  1  0
  1 27  1  0
  1 28  1  0
  3 29  1  0
  4 30  1  0
  5 31  1  0
  8 32  1  0
  9 33  1  0
  9 34  1  0
 10 35  1  0
 10 36  1  0
 12 37  1  0
 12 38  1  0
 12 39  1  0
 17 40  1  0
 17 41  1  0
 21 42  1  0
 21 43  1  0
 22 44  1  0
 22 45  1  0
 24 46  1  0
 24 47  1  0
 25 48  1  0
 25 49  1  0
M  END
