LIG
     RDKit          3D

 31 31  0  0  0  0  0  0  0  0999 V2000
   34.3220    8.7679    5.1777 C   0  0  0  0  0  0  0  0  0  0  0  0
   33.2989    9.5541    5.9303 C   0  0  0  0  0  0  0  0  0  0  0  0
   33.3589   10.9360    5.8477 C   0  0  0  0  0  0  0  0  0  0  0  0
   32.5347   11.7216    6.6440 C   0  0  0  0  0  0  0  0  0  0  0  0
   32.9215   13.0799    6.7363 N   0  0  0  0  0  0  0  0  0  0  0  0
   33.7625   13.4098    7.8067 C   0  0  0  0  0  0  0  0  0  0  0  0
   33.7101   12.9093    8.9295 O   0  0  0  0  0  0  0  0  0  0  0  0
   34.8093   14.4690    7.4325 C   0  0  0  0  0  0  0  0  0  0  0  0
   34.7081   14.8795    6.0705 O   0  0  0  0  0  0  0  0  0  0  0  0
   31.5341   11.1284    7.4341 C   0  0  0  0  0  0  0  0  0  0  0  0
   30.5329   11.8582    8.1005 N   0  0  0  0  0  0  0  0  0  0  0  0
   29.7830   12.7932    7.4061 C   0  0  0  0  0  0  0  0  0  0  0  0
   29.9570   13.1224    6.2341 O   0  0  0  0  0  0  0  0  0  0  0  0
   28.6174   13.3173    8.1919 C   0  0  0  0  0  0  0  0  0  0  0  0
   28.5753   14.7664    8.1305 C   0  0  0  0  0  0  0  0  0  0  0  0
   28.5016   15.9210    8.1584 N   0  0  0  0  0  0  0  0  0  0  0  0
   31.4698    9.7425    7.5314 C   0  0  0  0  0  0  0  0  0  0  0  0
   32.3523    8.9680    6.7862 C   0  0  0  0  0  0  0  0  0  0  0  0
   34.8901    8.1295    5.8520 H   0  0  0  0  0  0  0  0  0  0  0  0
   35.0612    9.4289    4.7085 H   0  0  0  0  0  0  0  0  0  0  0  0
   33.8792    8.1979    4.3630 H   0  0  0  0  0  0  0  0  0  0  0  0
   34.1386   11.4053    5.2507 H   0  0  0  0  0  0  0  0  0  0  0  0
   33.3537   13.4533    5.8892 H   0  0  0  0  0  0  0  0  0  0  0  0
   35.8070   14.0540    7.5961 H   0  0  0  0  0  0  0  0  0  0  0  0
   34.6489   15.3269    8.0844 H   0  0  0  0  0  0  0  0  0  0  0  0
   35.0107   15.8153    6.0269 H   0  0  0  0  0  0  0  0  0  0  0  0
   30.0587   11.3779    8.8628 H   0  0  0  0  0  0  0  0  0  0  0  0
   28.6640   13.0048    9.2354 H   0  0  0  0  0  0  0  0  0  0  0  0
   27.7107   12.8831    7.7593 H   0  0  0  0  0  0  0  0  0  0  0  0
   30.7341    9.2424    8.1562 H   0  0  0  0  0  0  0  0  0  0  0  0
   32.3132    7.8954    6.9178 H   0  0  0  0  0  0  0  0  0  0  0  0
  1  2  1  0
  2  3  2  0
  3  4  1  0
  4  5  1  0
  5  6  1  0
  6  7  2  0
  6  8  1  0
  8  9  1  0
  4 10  2  0
 10 11  1  0
 11 12  1  0
 12 13  2  0
 12 14  1  0
 14 15  1  0
 15 16  3  0
 10 17  1  0
 17 18  2  0
 18  2  1  0
  1 19  1  0
  1 20  1  0
  1 21  1  0
  3 22  1  0
  5 23  1  0
  8 24  1  0
  8 25  1  0
  9 26  1  0
 11 27  1  0
 14 28  1  0
 14 29  1  0
 17 30  1  0
 18 31  1  0
M  END
