LIG
     RDKit          3D

 34 34  0  0  0  0  0  0  0  0999 V2000
   36.9294   17.5224    3.0119 C   0  0  0  0  0  0  0  0  0  0  0  0
   37.7156   16.6604    3.8653 N   0  0  0  0  0  0  0  0  0  0  0  0
   39.1093   17.0521    4.0201 C   0  0  0  0  0  0  0  0  0  0  0  0
   37.2437   15.5259    4.5018 C   0  0  0  0  0  0  0  0  0  0  0  0
   38.0080   14.7989    5.1386 O   0  0  0  0  0  0  0  0  0  0  0  0
   35.7817   15.0907    4.3778 C   0  0  0  0  0  0  0  0  0  0  0  0
   35.3230   14.0678    5.2522 O   0  0  0  0  0  0  0  0  0  0  0  0
   35.2694   14.4290    6.6383 C   0  0  0  0  0  0  0  0  0  0  0  0
   34.2236   13.5474    7.3264 C   0  0  0  0  0  0  0  0  0  0  0  0
   33.9773   13.6012    8.5302 O   0  0  0  0  0  0  0  0  0  0  0  0
   33.5935   12.6900    6.4263 N   0  0  0  0  0  0  0  0  0  0  0  0
   32.5189   11.8844    6.8045 C   0  0  0  0  0  0  0  0  0  0  0  0
   32.5684   10.5163    6.5480 C   0  0  0  0  0  0  0  0  0  0  0  0
   31.6185    9.6846    7.1367 C   0  0  0  0  0  0  0  0  0  0  0  0
   30.5711   10.2321    7.8786 C   0  0  0  0  0  0  0  0  0  0  0  0
   30.4583   11.6115    7.9853 C   0  0  0  0  0  0  0  0  0  0  0  0
   29.3989   12.1983    8.6018 O   0  0  0  0  0  0  0  0  0  0  0  0
   31.4382   12.4419    7.4817 C   0  0  0  0  0  0  0  0  0  0  0  0
   37.4269   17.6098    2.0409 H   0  0  0  0  0  0  0  0  0  0  0  0
   35.9237   17.1376    2.8401 H   0  0  0  0  0  0  0  0  0  0  0  0
   36.8648   18.5130    3.4711 H   0  0  0  0  0  0  0  0  0  0  0  0
   39.1519   18.0384    4.4902 H   0  0  0  0  0  0  0  0  0  0  0  0
   39.5641   17.1158    3.0261 H   0  0  0  0  0  0  0  0  0  0  0  0
   39.6866   16.3347    4.6030 H   0  0  0  0  0  0  0  0  0  0  0  0
   35.7100   14.6571    3.3718 H   0  0  0  0  0  0  0  0  0  0  0  0
   35.0622   15.8963    4.3796 H   0  0  0  0  0  0  0  0  0  0  0  0
   36.2389   14.2321    7.0996 H   0  0  0  0  0  0  0  0  0  0  0  0
   34.9728   15.4722    6.7609 H   0  0  0  0  0  0  0  0  0  0  0  0
   34.2440   12.3589    5.7181 H   0  0  0  0  0  0  0  0  0  0  0  0
   33.4012   10.0768    6.0060 H   0  0  0  0  0  0  0  0  0  0  0  0
   31.7027    8.6048    7.0424 H   0  0  0  0  0  0  0  0  0  0  0  0
   29.8330    9.5699    8.3190 H   0  0  0  0  0  0  0  0  0  0  0  0
   29.3800   11.8370    9.5166 H   0  0  0  0  0  0  0  0  0  0  0  0
   31.3714   13.5115    7.6471 H   0  0  0  0  0  0  0  0  0  0  0  0
  1  2  1  0
  2  3  1  0
  2  4  1  0
  4  5  2  0
  4  6  1  0
  6  7  1  0
  7  8  1  0
  8  9  1  0
  9 10  2  0
  9 11  1  0
 11 12  1  0
 12 13  2  0
 13 14  1  0
 14 15  2  0
 15 16  1  0
 16 17  1  0
 16 18  2  0
 18 12  1  0
  1 19  1  0
  1 20  1  0
  1 21  1  0
  3 22  1  0
  3 23  1  0
  3 24  1  0
  6 25  1  0
  6 26  1  0
  8 27  1  0
  8 28  1  0
 11 29  1  0
 13 30  1  0
 14 31  1  0
 15 32  1  0
 17 33  1  0
 18 34  1  0
M  END
