LIG
     RDKit          3D

 40 41  0  0  0  0  0  0  0  0999 V2000
   30.8161   15.3726   11.1269 C   0  0  0  0  0  0  0  0  0  0  0  0
   29.9630   14.6437   10.2018 N   0  0  0  0  0  0  0  0  0  0  0  0
   28.5494   14.6114   10.4983 C   0  0  0  0  0  0  0  0  0  0  0  0
   30.5762   13.7520    9.3266 C   0  0  0  0  0  0  0  0  0  0  0  0
   31.8090   13.6860    9.2834 O   0  0  0  0  0  0  0  0  0  0  0  0
   29.7175   12.8750    8.3878 C   0  0  0  0  0  0  0  0  0  0  0  0
   30.0783   11.4940    8.3746 O   0  0  0  0  0  0  0  0  0  0  0  0
   31.0831   11.0482    7.5655 C   0  0  0  0  0  0  0  0  0  0  0  0
   31.3288    9.6785    7.5645 C   0  0  0  0  0  0  0  0  0  0  0  0
   32.2750    9.0732    6.8066 N   0  0  0  0  0  0  0  0  0  0  0  0
   33.0107    9.8671    5.9996 C   0  0  0  0  0  0  0  0  0  0  0  0
   32.8408   11.2436    5.9064 C   0  0  0  0  0  0  0  0  0  0  0  0
   33.6054   11.9603    4.9671 N   0  0  0  0  0  0  0  0  0  0  0  0
   33.4876   13.2980    4.6375 C   0  0  0  0  0  0  0  0  0  0  0  0
   32.7334   14.1126    5.1641 O   0  0  0  0  0  0  0  0  0  0  0  0
   34.4115   13.6958    3.4792 C   0  0  0  0  0  0  0  0  0  0  0  0
   33.6972   14.6222    2.5063 C   0  0  0  0  0  0  0  0  0  0  0  0
   34.3815   14.3090    1.2024 C   0  0  0  0  0  0  0  0  0  0  0  0
   34.6294   12.8236    1.3248 C   0  0  0  0  0  0  0  0  0  0  0  0
   34.8417   12.5503    2.7181 O   0  0  0  0  0  0  0  0  0  0  0  0
   31.8739   11.8303    6.7298 C   0  0  0  0  0  0  0  0  0  0  0  0
   30.5565   16.4280   11.1435 H   0  0  0  0  0  0  0  0  0  0  0  0
   31.8743   15.3032   10.8687 H   0  0  0  0  0  0  0  0  0  0  0  0
   30.6706   14.9465   12.1180 H   0  0  0  0  0  0  0  0  0  0  0  0
   28.0155   15.1858    9.7373 H   0  0  0  0  0  0  0  0  0  0  0  0
   28.3768   15.0221   11.4936 H   0  0  0  0  0  0  0  0  0  0  0  0
   28.1648   13.5926   10.5093 H   0  0  0  0  0  0  0  0  0  0  0  0
   29.7422   13.3128    7.3828 H   0  0  0  0  0  0  0  0  0  0  0  0
   28.6648   12.9055    8.6675 H   0  0  0  0  0  0  0  0  0  0  0  0
   30.7434    9.0042    8.1853 H   0  0  0  0  0  0  0  0  0  0  0  0
   33.7509    9.3360    5.4064 H   0  0  0  0  0  0  0  0  0  0  0  0
   34.2817   11.4457    4.4042 H   0  0  0  0  0  0  0  0  0  0  0  0
   35.3057   14.1699    3.8994 H   0  0  0  0  0  0  0  0  0  0  0  0
   32.6302   14.3768    2.4341 H   0  0  0  0  0  0  0  0  0  0  0  0
   33.7774   15.6752    2.7925 H   0  0  0  0  0  0  0  0  0  0  0  0
   35.3374   14.8434    1.1500 H   0  0  0  0  0  0  0  0  0  0  0  0
   33.7924   14.5739    0.3206 H   0  0  0  0  0  0  0  0  0  0  0  0
   35.4971   12.4915    0.7481 H   0  0  0  0  0  0  0  0  0  0  0  0
   33.7547   12.2482    1.0031 H   0  0  0  0  0  0  0  0  0  0  0  0
   31.7443   12.9023    6.7214 H   0  0  0  0  0  0  0  0  0  0  0  0
  1  2  1  0
  2  3  1  0
  2  4  1  0
  4  5  2  0
  4  6  1  0
  6  7  1  0
  7  8  1  0
  8  9  2  0
  9 10  1  0
 10 11  2  0
 11 12  1  0
 12 13  1  0
 13 14  1  0
 14 15  2  0
 14 16  1  0
 16 17  1  0
 17 18  1  0
 18 19  1  0
 19 20  1  0
 12 21  2  0
 21  8  1  0
 20 16  1  0
  1 22  1  0
  1 23  1  0
  1 24  1  0
  3 25  1  0
  3 26  1  0
  3 27  1  0
  6 28  1  0
  6 29  1  0
  9 30  1  0
 11 31  1  0
 13 32  1  0
 16 33  1  0
 17 34  1  0
 17 35  1  0
 18 36  1  0
 18 37  1  0
 19 38  1  0
 19 39  1  0
 21 40  1  0
M  END
