LIG
     RDKit          3D

 45 47  0  0  0  0  0  0  0  0999 V2000
   31.4153    8.5212    7.8075 C   0  0  0  0  0  0  0  0  0  0  0  0
   31.7956    9.8546    7.2414 C   0  0  0  0  0  0  0  0  0  0  0  0
   32.7003   10.0159    6.1674 C   0  0  0  0  0  0  0  0  0  0  0  0
   33.0013   11.2996    5.7002 C   0  0  0  0  0  0  0  0  0  0  0  0
   33.8546   11.5540    4.6111 N   0  0  0  0  0  0  0  0  0  0  0  0
   34.3387   12.8262    4.3028 C   0  0  0  0  0  0  0  0  0  0  0  0
   34.3191   13.8108    5.0423 O   0  0  0  0  0  0  0  0  0  0  0  0
   34.8916   12.9641    2.8910 C   0  0  0  0  0  0  0  0  0  0  0  0
   34.2414   14.1628    2.2085 C   0  0  0  0  0  0  0  0  0  0  0  0
   34.3698   13.8043    0.7550 C   0  0  0  0  0  0  0  0  0  0  0  0
   34.1623   12.3076    0.7844 C   0  0  0  0  0  0  0  0  0  0  0  0
   34.6340   11.8316    2.0536 O   0  0  0  0  0  0  0  0  0  0  0  0
   32.3693   12.3755    6.2930 C   0  0  0  0  0  0  0  0  0  0  0  0
   31.5232   12.2327    7.3593 C   0  0  0  0  0  0  0  0  0  0  0  0
   31.0652   13.4365    7.7661 O   0  0  0  0  0  0  0  0  0  0  0  0
   30.1009   13.4032    8.7731 C   0  0  0  0  0  0  0  0  0  0  0  0
   28.7583   12.8777    8.2786 C   0  0  0  0  0  0  0  0  0  0  0  0
   28.2752   14.0336    7.4583 C   0  0  0  0  0  0  0  0  0  0  0  0
   28.6300   15.1538    8.2848 N   0  0  0  0  0  0  0  0  0  0  0  0
   27.6071   15.7914    9.0229 C   0  0  0  0  0  0  0  0  0  0  0  0
   29.7754   14.8428    9.0448 C   0  0  0  0  0  0  0  0  0  0  0  0
   30.3564   15.5747    9.8347 O   0  0  0  0  0  0  0  0  0  0  0  0
   31.2283   10.9762    7.8457 C   0  0  0  0  0  0  0  0  0  0  0  0
   31.8490    7.7268    7.2087 H   0  0  0  0  0  0  0  0  0  0  0  0
   30.3281    8.4089    7.8260 H   0  0  0  0  0  0  0  0  0  0  0  0
   31.7806    8.4055    8.8277 H   0  0  0  0  0  0  0  0  0  0  0  0
   33.1683    9.1429    5.7181 H   0  0  0  0  0  0  0  0  0  0  0  0
   34.1851   10.7861    4.0358 H   0  0  0  0  0  0  0  0  0  0  0  0
   35.9788   13.0857    2.9582 H   0  0  0  0  0  0  0  0  0  0  0  0
   34.7277   15.1091    2.4639 H   0  0  0  0  0  0  0  0  0  0  0  0
   33.1811   14.2468    2.4795 H   0  0  0  0  0  0  0  0  0  0  0  0
   33.6590   14.3229    0.1065 H   0  0  0  0  0  0  0  0  0  0  0  0
   35.3832   14.0334    0.4045 H   0  0  0  0  0  0  0  0  0  0  0  0
   33.0987   12.0555    0.7122 H   0  0  0  0  0  0  0  0  0  0  0  0
   34.6948   11.7942   -0.0213 H   0  0  0  0  0  0  0  0  0  0  0  0
   32.4891   13.3899    5.9328 H   0  0  0  0  0  0  0  0  0  0  0  0
   30.4976   12.9773    9.6820 H   0  0  0  0  0  0  0  0  0  0  0  0
   28.7886   11.9715    7.6731 H   0  0  0  0  0  0  0  0  0  0  0  0
   28.0901   12.7324    9.1310 H   0  0  0  0  0  0  0  0  0  0  0  0
   27.2087   13.9861    7.2341 H   0  0  0  0  0  0  0  0  0  0  0  0
   28.8231   14.1201    6.5127 H   0  0  0  0  0  0  0  0  0  0  0  0
   27.5713   15.3825   10.0337 H   0  0  0  0  0  0  0  0  0  0  0  0
   26.6482   15.6137    8.5502 H   0  0  0  0  0  0  0  0  0  0  0  0
   27.8257   16.8497    8.9973 H   0  0  0  0  0  0  0  0  0  0  0  0
   30.5559   10.8231    8.6841 H   0  0  0  0  0  0  0  0  0  0  0  0
  1  2  1  0
  2  3  2  0
  3  4  1  0
  4  5  1  0
  5  6  1  0
  6  7  2  0
  6  8  1  0
  8  9  1  0
  9 10  1  0
 10 11  1  0
 11 12  1  0
  4 13  2  0
 13 14  1  0
 14 15  1  0
 15 16  1  0
 16 17  1  0
 17 18  1  0
 18 19  1  0
 19 20  1  0
 19 21  1  0
 21 22  2  0
 14 23  2  0
 23  2  1  0
 12  8  1  0
 21 16  1  0
  1 24  1  0
  1 25  1  0
  1 26  1  0
  3 27  1  0
  5 28  1  0
  8 29  1  0
  9 30  1  0
  9 31  1  0
 10 32  1  0
 10 33  1  0
 11 34  1  0
 11 35  1  0
 13 36  1  0
 16 37  1  0
 17 38  1  0
 17 39  1  0
 18 40  1  0
 18 41  1  0
 20 42  1  0
 20 43  1  0
 20 44  1  0
 23 45  1  0
M  END
