LIG
     RDKit          3D

 49 51  0  0  0  0  0  0  0  0999 V2000
   33.9197    9.4680    5.5795 C   0  0  0  0  0  0  0  0  0  0  0  0
   32.7391    9.8591    6.4270 C   0  0  0  0  0  0  0  0  0  0  0  0
   32.1100    8.9037    7.2248 C   0  0  0  0  0  0  0  0  0  0  0  0
   31.0536    9.2458    8.0453 C   0  0  0  0  0  0  0  0  0  0  0  0
   30.6155   10.5618    8.0647 C   0  0  0  0  0  0  0  0  0  0  0  0
   31.2056   11.5534    7.2660 C   0  0  0  0  0  0  0  0  0  0  0  0
   30.7665   12.8577    7.2489 O   0  0  0  0  0  0  0  0  0  0  0  0
   30.1086   13.3271    8.3871 C   0  0  0  0  0  0  0  0  0  0  0  0
   28.6757   13.7029    8.0450 C   0  0  0  0  0  0  0  0  0  0  0  0
   28.2121   14.3104    9.3450 C   0  0  0  0  0  0  0  0  0  0  0  0
   29.3571   14.9965    9.8745 N   0  0  0  0  0  0  0  0  0  0  0  0
   29.5243   15.0987   11.3043 C   0  0  0  0  0  0  0  0  0  0  0  0
   30.5213   14.5462    9.2194 C   0  0  0  0  0  0  0  0  0  0  0  0
   31.6267   15.0031    9.4511 O   0  0  0  0  0  0  0  0  0  0  0  0
   32.2375   11.1702    6.3946 C   0  0  0  0  0  0  0  0  0  0  0  0
   32.8176   11.9019    5.3983 O   0  0  0  0  0  0  0  0  0  0  0  0
   32.5533   13.2774    5.2525 C   0  0  0  0  0  0  0  0  0  0  0  0
   33.4632   13.9594    6.2370 C   0  0  0  0  0  0  0  0  0  0  0  0
   33.2722   13.8242    7.4496 O   0  0  0  0  0  0  0  0  0  0  0  0
   34.5245   14.6973    5.7571 N   0  0  0  0  0  0  0  0  0  0  0  0
   35.5985   14.8882    6.7187 C   0  0  0  0  0  0  0  0  0  0  0  0
   36.6181   13.7723    6.4766 C   0  0  0  0  0  0  0  0  0  0  0  0
   37.1876   13.9300    5.1602 O   0  0  0  0  0  0  0  0  0  0  0  0
   36.1606   13.7626    4.1640 C   0  0  0  0  0  0  0  0  0  0  0  0
   35.0175   14.7628    4.3725 C   0  0  0  0  0  0  0  0  0  0  0  0
   33.6002    9.2805    4.5508 H   0  0  0  0  0  0  0  0  0  0  0  0
   34.6825   10.2531    5.5711 H   0  0  0  0  0  0  0  0  0  0  0  0
   34.3987    8.5634    5.9576 H   0  0  0  0  0  0  0  0  0  0  0  0
   32.4513    7.8773    7.2215 H   0  0  0  0  0  0  0  0  0  0  0  0
   30.5673    8.4864    8.6523 H   0  0  0  0  0  0  0  0  0  0  0  0
   29.7565   10.7576    8.6880 H   0  0  0  0  0  0  0  0  0  0  0  0
   30.1093   12.5772    9.1658 H   0  0  0  0  0  0  0  0  0  0  0  0
   28.0689   12.8489    7.7311 H   0  0  0  0  0  0  0  0  0  0  0  0
   28.6567   14.4390    7.2311 H   0  0  0  0  0  0  0  0  0  0  0  0
   27.9263   13.5273   10.0516 H   0  0  0  0  0  0  0  0  0  0  0  0
   27.3944   15.0221    9.2167 H   0  0  0  0  0  0  0  0  0  0  0  0
   30.2601   15.8726   11.5420 H   0  0  0  0  0  0  0  0  0  0  0  0
   28.5751   15.2897   11.7983 H   0  0  0  0  0  0  0  0  0  0  0  0
   29.9093   14.1522   11.6900 H   0  0  0  0  0  0  0  0  0  0  0  0
   32.7836   13.5204    4.2187 H   0  0  0  0  0  0  0  0  0  0  0  0
   31.5093   13.5736    5.3547 H   0  0  0  0  0  0  0  0  0  0  0  0
   35.2519   14.8790    7.7555 H   0  0  0  0  0  0  0  0  0  0  0  0
   36.0352   15.8597    6.5024 H   0  0  0  0  0  0  0  0  0  0  0  0
   36.1469   12.7883    6.5220 H   0  0  0  0  0  0  0  0  0  0  0  0
   37.4301   13.7750    7.2059 H   0  0  0  0  0  0  0  0  0  0  0  0
   36.6203   13.9151    3.1826 H   0  0  0  0  0  0  0  0  0  0  0  0
   35.7932   12.7302    4.2056 H   0  0  0  0  0  0  0  0  0  0  0  0
   35.4174   15.7660    4.2116 H   0  0  0  0  0  0  0  0  0  0  0  0
   34.2283   14.6211    3.6357 H   0  0  0  0  0  0  0  0  0  0  0  0
  1  2  1  0
  2  3  2  0
  3  4  1  0
  4  5  2  0
  5  6  1  0
  6  7  1  0
  7  8  1  0
  8  9  1  0
  9 10  1  0
 10 11  1  0
 11 12  1  0
 11 13  1  0
 13 14  2  0
  6 15  2  0
 15 16  1  0
 16 17  1  0
 17 18  1  0
 18 19  2  0
 18 20  1  0
 20 21  1  0
 21 22  1  0
 22 23  1  0
 23 24  1  0
 24 25  1  0
 15  2  1  0
 25 20  1  0
 13  8  1  0
  1 26  1  0
  1 27  1  0
  1 28  1  0
  3 29  1  0
  4 30  1  0
  5 31  1  0
  8 32  1  0
  9 33  1  0
  9 34  1  0
 10 35  1  0
 10 36  1  0
 12 37  1  0
 12 38  1  0
 12 39  1  0
 17 40  1  0
 17 41  1  0
 21 42  1  0
 21 43  1  0
 22 44  1  0
 22 45  1  0
 24 46  1  0
 24 47  1  0
 25 48  1  0
 25 49  1  0
M  END
