LIG
     RDKit          3D

 48 49  0  0  0  0  0  0  0  0999 V2000
   31.6801    8.1266    8.0227 C   0  0  0  0  0  0  0  0  0  0  0  0
   31.5409    9.5465    7.6699 C   0  0  0  0  0  0  0  0  0  0  0  0
   30.5525   10.2809    8.3067 C   0  0  0  0  0  0  0  0  0  0  0  0
   30.3137   11.5896    7.9408 C   0  0  0  0  0  0  0  0  0  0  0  0
   29.2375   12.1779    8.5165 O   0  0  0  0  0  0  0  0  0  0  0  0
   29.2622   13.5700    8.7422 C   0  0  0  0  0  0  0  0  0  0  0  0
   30.3540   14.1479    9.6700 C   0  0  0  0  0  0  0  0  0  0  0  0
   31.5503   13.8937    9.5199 O   0  0  0  0  0  0  0  0  0  0  0  0
   29.9420   15.0660   10.6310 N   0  0  0  0  0  0  0  0  0  0  0  0
   28.7587   14.7513   11.4031 C   0  0  0  0  0  0  0  0  0  0  0  0
   30.9803   15.7821   11.3486 C   0  0  0  0  0  0  0  0  0  0  0  0
   31.0832   12.1624    6.9469 C   0  0  0  0  0  0  0  0  0  0  0  0
   32.1025   11.4333    6.3294 C   0  0  0  0  0  0  0  0  0  0  0  0
   32.8882   11.8611    5.3003 O   0  0  0  0  0  0  0  0  0  0  0  0
   32.7893   13.2303    4.9480 C   0  0  0  0  0  0  0  0  0  0  0  0
   33.5586   14.0121    5.9829 C   0  0  0  0  0  0  0  0  0  0  0  0
   33.2544   13.9299    7.1740 O   0  0  0  0  0  0  0  0  0  0  0  0
   34.6300   14.7745    5.5859 N   0  0  0  0  0  0  0  0  0  0  0  0
   35.6315   14.9414    6.6264 C   0  0  0  0  0  0  0  0  0  0  0  0
   36.6333   13.7947    6.4583 C   0  0  0  0  0  0  0  0  0  0  0  0
   37.2990   13.9325    5.1816 O   0  0  0  0  0  0  0  0  0  0  0  0
   36.3397   13.8072    4.1125 C   0  0  0  0  0  0  0  0  0  0  0  0
   35.2178   14.8432    4.2458 C   0  0  0  0  0  0  0  0  0  0  0  0
   32.3373   10.1237    6.6945 C   0  0  0  0  0  0  0  0  0  0  0  0
   30.7102    7.6466    7.8967 H   0  0  0  0  0  0  0  0  0  0  0  0
   31.9865    8.0041    9.0587 H   0  0  0  0  0  0  0  0  0  0  0  0
   32.4043    7.6622    7.3624 H   0  0  0  0  0  0  0  0  0  0  0  0
   29.9436    9.8139    9.0726 H   0  0  0  0  0  0  0  0  0  0  0  0
   28.2700   13.8173    9.1179 H   0  0  0  0  0  0  0  0  0  0  0  0
   29.3194   14.1161    7.7922 H   0  0  0  0  0  0  0  0  0  0  0  0
   28.7007   15.3975   12.2800 H   0  0  0  0  0  0  0  0  0  0  0  0
   28.8093   13.7267   11.7572 H   0  0  0  0  0  0  0  0  0  0  0  0
   27.8676   14.8699   10.7878 H   0  0  0  0  0  0  0  0  0  0  0  0
   30.5905   16.7071   11.7756 H   0  0  0  0  0  0  0  0  0  0  0  0
   31.3494   15.1499   12.1464 H   0  0  0  0  0  0  0  0  0  0  0  0
   31.8127   16.0305   10.6865 H   0  0  0  0  0  0  0  0  0  0  0  0
   30.8637   13.1774    6.6550 H   0  0  0  0  0  0  0  0  0  0  0  0
   33.2208   13.3028    3.9523 H   0  0  0  0  0  0  0  0  0  0  0  0
   31.7633   13.5973    4.8471 H   0  0  0  0  0  0  0  0  0  0  0  0
   35.2110   14.9448    7.6355 H   0  0  0  0  0  0  0  0  0  0  0  0
   36.1079   15.8993    6.4406 H   0  0  0  0  0  0  0  0  0  0  0  0
   37.3931   13.7789    7.2421 H   0  0  0  0  0  0  0  0  0  0  0  0
   36.1337   12.8225    6.4748 H   0  0  0  0  0  0  0  0  0  0  0  0
   36.8738   13.9501    3.1681 H   0  0  0  0  0  0  0  0  0  0  0  0
   35.9386   12.7868    4.1195 H   0  0  0  0  0  0  0  0  0  0  0  0
   34.4669   14.7347    3.4621 H   0  0  0  0  0  0  0  0  0  0  0  0
   35.6583   15.8363    4.1251 H   0  0  0  0  0  0  0  0  0  0  0  0
   33.1116    9.5495    6.1948 H   0  0  0  0  0  0  0  0  0  0  0  0
  1  2  1  0
  2  3  2  0
  3  4  1  0
  4  5  1  0
  5  6  1  0
  6  7  1  0
  7  8  2  0
  7  9  1  0
  9 10  1  0
  9 11  1  0
  4 12  2  0
 12 13  1  0
 13 14  1  0
 14 15  1  0
 15 16  1  0
 16 17  2  0
 16 18  1  0
 18 19  1  0
 19 20  1  0
 20 21  1  0
 21 22  1  0
 22 23  1  0
 13 24  2  0
 24  2  1  0
 23 18  1  0
  1 25  1  0
  1 26  1  0
  1 27  1  0
  3 28  1  0
  6 29  1  0
  6 30  1  0
 10 31  1  0
 10 32  1  0
 10 33  1  0
 11 34  1  0
 11 35  1  0
 11 36  1  0
 12 37  1  0
 15 38  1  0
 15 39  1  0
 19 40  1  0
 19 41  1  0
 20 42  1  0
 20 43  1  0
 22 44  1  0
 22 45  1  0
 23 46  1  0
 23 47  1  0
 24 48  1  0
M  END
