LIG
     RDKit          3D

 45 47  0  0  0  0  0  0  0  0999 V2000
   30.5658    9.1539    8.4788 C   0  0  0  0  0  0  0  0  0  0  0  0
   31.4153    9.9785    7.5548 C   0  0  0  0  0  0  0  0  0  0  0  0
   32.3031    9.2941    6.7183 C   0  0  0  0  0  0  0  0  0  0  0  0
   33.1286    9.9656    5.8172 C   0  0  0  0  0  0  0  0  0  0  0  0
   33.1058   11.3465    5.7684 C   0  0  0  0  0  0  0  0  0  0  0  0
   33.8544   12.0180    4.7920 N   0  0  0  0  0  0  0  0  0  0  0  0
   33.6945   13.3459    4.4230 C   0  0  0  0  0  0  0  0  0  0  0  0
   32.9240   14.1589    4.9326 O   0  0  0  0  0  0  0  0  0  0  0  0
   34.5799   13.7275    3.2352 C   0  0  0  0  0  0  0  0  0  0  0  0
   33.8475   14.6758    2.2971 C   0  0  0  0  0  0  0  0  0  0  0  0
   34.4606   14.3443    0.9634 C   0  0  0  0  0  0  0  0  0  0  0  0
   34.6702   12.8524    1.0749 C   0  0  0  0  0  0  0  0  0  0  0  0
   34.9483   12.5735    2.4544 O   0  0  0  0  0  0  0  0  0  0  0  0
   32.2954   12.0257    6.6652 C   0  0  0  0  0  0  0  0  0  0  0  0
   31.3681   11.3752    7.4753 C   0  0  0  0  0  0  0  0  0  0  0  0
   30.4267   12.0563    8.1989 O   0  0  0  0  0  0  0  0  0  0  0  0
   30.1348   13.4039    7.8372 C   0  0  0  0  0  0  0  0  0  0  0  0
   28.6251   13.6088    7.7613 C   0  0  0  0  0  0  0  0  0  0  0  0
   28.2579   14.0426    9.1568 C   0  0  0  0  0  0  0  0  0  0  0  0
   29.3900   14.7635    9.6490 N   0  0  0  0  0  0  0  0  0  0  0  0
   29.5464   14.9841   11.0631 C   0  0  0  0  0  0  0  0  0  0  0  0
   30.5372   14.3626    8.9581 C   0  0  0  0  0  0  0  0  0  0  0  0
   31.6681   14.7129    9.2638 O   0  0  0  0  0  0  0  0  0  0  0  0
   31.1246    8.2932    8.8587 H   0  0  0  0  0  0  0  0  0  0  0  0
   30.2580    9.7353    9.3478 H   0  0  0  0  0  0  0  0  0  0  0  0
   29.6743    8.7930    7.9624 H   0  0  0  0  0  0  0  0  0  0  0  0
   32.3578    8.2104    6.7757 H   0  0  0  0  0  0  0  0  0  0  0  0
   33.7826    9.3874    5.1697 H   0  0  0  0  0  0  0  0  0  0  0  0
   34.4629   11.4739    4.1842 H   0  0  0  0  0  0  0  0  0  0  0  0
   35.5015   14.1782    3.6201 H   0  0  0  0  0  0  0  0  0  0  0  0
   32.7715   14.4618    2.2722 H   0  0  0  0  0  0  0  0  0  0  0  0
   33.9709   15.7255    2.5801 H   0  0  0  0  0  0  0  0  0  0  0  0
   35.4282   14.8508    0.8662 H   0  0  0  0  0  0  0  0  0  0  0  0
   33.8390   14.6270    0.1099 H   0  0  0  0  0  0  0  0  0  0  0  0
   35.4955   12.4947    0.4531 H   0  0  0  0  0  0  0  0  0  0  0  0
   33.7629   12.3034    0.8008 H   0  0  0  0  0  0  0  0  0  0  0  0
   32.4033   13.0987    6.7475 H   0  0  0  0  0  0  0  0  0  0  0  0
   30.5341   13.7180    6.8728 H   0  0  0  0  0  0  0  0  0  0  0  0
   28.3993   14.4230    7.0607 H   0  0  0  0  0  0  0  0  0  0  0  0
   28.0742   12.7187    7.4444 H   0  0  0  0  0  0  0  0  0  0  0  0
   28.0792   13.1786    9.7983 H   0  0  0  0  0  0  0  0  0  0  0  0
   27.3927   14.7072    9.1688 H   0  0  0  0  0  0  0  0  0  0  0  0
   28.5860   15.2042   11.5243 H   0  0  0  0  0  0  0  0  0  0  0  0
   29.9432   14.0802   11.5274 H   0  0  0  0  0  0  0  0  0  0  0  0
   30.2728   15.7821   11.2414 H   0  0  0  0  0  0  0  0  0  0  0  0
  1  2  1  0
  2  3  2  0
  3  4  1  0
  4  5  2  0
  5  6  1  0
  6  7  1  0
  7  8  2  0
  7  9  1  0
  9 10  1  0
 10 11  1  0
 11 12  1  0
 12 13  1  0
  5 14  1  0
 14 15  2  0
 15 16  1  0
 16 17  1  0
 17 18  1  0
 18 19  1  0
 19 20  1  0
 20 21  1  0
 20 22  1  0
 22 23  2  0
 15  2  1  0
 22 17  1  0
 13  9  1  0
  1 24  1  0
  1 25  1  0
  1 26  1  0
  3 27  1  0
  4 28  1  0
  6 29  1  0
  9 30  1  0
 10 31  1  0
 10 32  1  0
 11 33  1  0
 11 34  1  0
 12 35  1  0
 12 36  1  0
 14 37  1  0
 17 38  1  0
 18 39  1  0
 18 40  1  0
 19 41  1  0
 19 42  1  0
 21 43  1  0
 21 44  1  0
 21 45  1  0
M  END
