LIG
     RDKit          3D

 41 42  0  0  0  0  0  0  0  0999 V2000
   30.1570    8.4110    8.0350 C   0  0  0  0  0  0  0  0  0  0  0  0
   31.0170    9.5590    7.5720 C   0  0  0  0  0  0  0  0  0  0  0  0
   32.1560    9.3390    6.8090 C   0  0  0  0  0  0  0  0  0  0  0  0
   33.0110   10.3720    6.4380 C   0  0  0  0  0  0  0  0  0  0  0  0
   34.1980   10.0910    5.5530 C   0  0  0  0  0  0  0  0  0  0  0  0
   32.7080   11.6650    6.8730 C   0  0  0  0  0  0  0  0  0  0  0  0
   33.6520   12.7090    6.6590 N   0  0  0  0  0  0  0  0  0  0  0  0
   34.4250   13.2280    7.6390 C   0  0  0  0  0  0  0  0  0  0  0  0
   34.9120   12.5690    8.5560 O   0  0  0  0  0  0  0  0  0  0  0  0
   34.6680   14.7180    7.5670 C   0  0  0  0  0  0  0  0  0  0  0  0
   35.0470   15.1300    6.2680 S   0  0  0  0  0  0  0  0  0  0  0  0
   31.5450   11.9340    7.6020 C   0  0  0  0  0  0  0  0  0  0  0  0
   31.1650   13.3330    8.0150 O   0  0  0  0  0  0  0  0  0  0  0  0
   30.0580   13.6540    8.5870 C   0  0  0  0  0  0  0  0  0  0  0  0
   28.5940   13.4330    8.1660 C   0  0  0  0  0  0  0  0  0  0  0  0
   27.8900   14.7750    8.3110 C   0  0  0  0  0  0  0  0  0  0  0  0
   28.8690   15.5850    9.0100 N   0  0  0  0  0  0  0  0  0  0  0  0
   28.4820   16.7650    9.7690 C   0  0  0  0  0  0  0  0  0  0  0  0
   30.1260   15.1410    8.9140 C   0  0  0  0  0  0  0  0  0  0  0  0
   31.1310   15.8110    9.0820 O   0  0  0  0  0  0  0  0  0  0  0  0
   30.7220   10.8640    7.9390 C   0  0  0  0  0  0  0  0  0  0  0  0
   30.7668    7.5233    8.2270 H   0  0  0  0  0  0  0  0  0  0  0  0
   29.4119    8.1744    7.2709 H   0  0  0  0  0  0  0  0  0  0  0  0
   29.6437    8.6621    8.9678 H   0  0  0  0  0  0  0  0  0  0  0  0
   32.3917    8.3126    6.5001 H   0  0  0  0  0  0  0  0  0  0  0  0
   33.9350   10.2391    4.5028 H   0  0  0  0  0  0  0  0  0  0  0  0
   34.5276    9.0530    5.6741 H   0  0  0  0  0  0  0  0  0  0  0  0
   33.9723    9.3227    4.8090 H   0  0  0  0  0  0  0  0  0  0  0  0
   34.0384   12.7059    5.7420 H   0  0  0  0  0  0  0  0  0  0  0  0
   33.7035   15.1635    8.0298 H   0  0  0  0  0  0  0  0  0  0  0  0
   35.4124   14.9027    8.4332 H   0  0  0  0  0  0  0  0  0  0  0  0
   35.6459   14.0166    5.7167 H   0  0  0  0  0  0  0  0  0  0  0  0
   30.0068   14.4487    7.0224 H   0  0  0  0  0  0  0  0  0  0  0  0
   28.0836   12.6444    8.7531 H   0  0  0  0  0  0  0  0  0  0  0  0
   28.5607   13.1174    7.1034 H   0  0  0  0  0  0  0  0  0  0  0  0
   27.6452   15.2236    7.3459 H   0  0  0  0  0  0  0  0  0  0  0  0
   26.9923   14.6986    8.9316 H   0  0  0  0  0  0  0  0  0  0  0  0
   28.4321   16.4959   10.8259 H   0  0  0  0  0  0  0  0  0  0  0  0
   29.2706   16.9969   10.4865 H   0  0  0  0  0  0  0  0  0  0  0  0
   29.2223   17.5552    9.6334 H   0  0  0  0  0  0  0  0  0  0  0  0
   29.7830   11.0326    8.4897 H   0  0  0  0  0  0  0  0  0  0  0  0
  1  2  1  0
  2  3  4  0
  3  4  4  0
  4  5  1  0
  4  6  4  0
  6  7  1  0
  7  8  1  0
  8  9  2  0
  8 10  1  0
 10 11  1  0
  6 12  4  0
 12 13  1  0
 13 14  1  0
 14 15  1  0
 15 16  1  0
 16 17  1  0
 17 18  1  0
 17 19  1  0
 19 20  2  0
 12 21  4  0
 21  2  4  0
 19 14  1  0
  1 22  1  0
  1 23  1  0
  1 24  1  0
  3 25  1  0
  5 26  1  0
  5 27  1  0
  5 28  1  0
  7 29  1  0
 10 30  1  0
 10 31  1  0
 11 32  1  0
 14 33  1  0
 15 34  1  0
 15 35  1  0
 16 36  1  0
 16 37  1  0
 18 38  1  0
 18 39  1  0
 18 40  1  0
 21 41  1  0
M  END
$$$$
