LIG
     RDKit          3D

 45 47  0  0  0  0  0  0  0  0999 V2000
   31.4111    8.5241    7.8056 C   0  0  0  0  0  0  0  0  0  0  0  0
   31.8008    9.8560    7.2426 C   0  0  0  0  0  0  0  0  0  0  0  0
   32.7099   10.0158    6.1729 C   0  0  0  0  0  0  0  0  0  0  0  0
   33.0245   11.2998    5.7148 C   0  0  0  0  0  0  0  0  0  0  0  0
   33.8733   11.5505    4.6206 N   0  0  0  0  0  0  0  0  0  0  0  0
   34.3562   12.8211    4.3037 C   0  0  0  0  0  0  0  0  0  0  0  0
   34.3472   13.8077    5.0403 O   0  0  0  0  0  0  0  0  0  0  0  0
   34.8944   12.9537    2.8858 C   0  0  0  0  0  0  0  0  0  0  0  0
   34.2418   14.1532    2.2070 C   0  0  0  0  0  0  0  0  0  0  0  0
   34.3573   13.7916    0.7532 C   0  0  0  0  0  0  0  0  0  0  0  0
   34.1451   12.2956    0.7870 C   0  0  0  0  0  0  0  0  0  0  0  0
   34.6233   11.8197    2.0542 O   0  0  0  0  0  0  0  0  0  0  0  0
   32.4050   12.3804    6.3131 C   0  0  0  0  0  0  0  0  0  0  0  0
   31.5430   12.2364    7.3667 C   0  0  0  0  0  0  0  0  0  0  0  0
   31.0778   13.4394    7.7685 O   0  0  0  0  0  0  0  0  0  0  0  0
   30.1069   13.4033    8.7686 C   0  0  0  0  0  0  0  0  0  0  0  0
   28.7667   12.8769    8.2668 C   0  0  0  0  0  0  0  0  0  0  0  0
   28.2816   14.0356    7.4516 C   0  0  0  0  0  0  0  0  0  0  0  0
   28.6336   15.1517    8.2842 N   0  0  0  0  0  0  0  0  0  0  0  0
   27.6106   15.7928    9.0186 C   0  0  0  0  0  0  0  0  0  0  0  0
   29.7780   14.8410    9.0444 C   0  0  0  0  0  0  0  0  0  0  0  0
   30.3543   15.5697    9.8400 O   0  0  0  0  0  0  0  0  0  0  0  0
   31.2363   10.9794    7.8457 C   0  0  0  0  0  0  0  0  0  0  0  0
   31.7730    8.4055    8.8268 H   0  0  0  0  0  0  0  0  0  0  0  0
   30.3233    8.4176    7.8207 H   0  0  0  0  0  0  0  0  0  0  0  0
   31.8428    7.7280    7.2075 H   0  0  0  0  0  0  0  0  0  0  0  0
   33.1706    9.1422    5.7182 H   0  0  0  0  0  0  0  0  0  0  0  0
   34.1887   10.7830    4.0368 H   0  0  0  0  0  0  0  0  0  0  0  0
   35.9827   13.0711    2.9412 H   0  0  0  0  0  0  0  0  0  0  0  0
   34.7329   15.0985    2.4567 H   0  0  0  0  0  0  0  0  0  0  0  0
   33.1841   14.2403    2.4867 H   0  0  0  0  0  0  0  0  0  0  0  0
   35.3685   14.0167    0.3941 H   0  0  0  0  0  0  0  0  0  0  0  0
   33.6430   14.3113    0.1095 H   0  0  0  0  0  0  0  0  0  0  0  0
   33.0803   12.0468    0.7221 H   0  0  0  0  0  0  0  0  0  0  0  0
   34.6707   11.7790   -0.0211 H   0  0  0  0  0  0  0  0  0  0  0  0
   32.5375   13.3966    5.9633 H   0  0  0  0  0  0  0  0  0  0  0  0
   30.4978   12.9746    9.6786 H   0  0  0  0  0  0  0  0  0  0  0  0
   28.0965   12.7256    9.1166 H   0  0  0  0  0  0  0  0  0  0  0  0
   28.8006   11.9737    7.6569 H   0  0  0  0  0  0  0  0  0  0  0  0
   28.8302   14.1278    6.5070 H   0  0  0  0  0  0  0  0  0  0  0  0
   27.2151   13.9867    7.2273 H   0  0  0  0  0  0  0  0  0  0  0  0
   27.5728   15.3861   10.0303 H   0  0  0  0  0  0  0  0  0  0  0  0
   27.8313   16.8508    8.9916 H   0  0  0  0  0  0  0  0  0  0  0  0
   26.6520   15.6140    8.5455 H   0  0  0  0  0  0  0  0  0  0  0  0
   30.5562   10.8273    8.6780 H   0  0  0  0  0  0  0  0  0  0  0  0
  1  2  1  0
  2  3  2  0
  3  4  1  0
  4  5  1  0
  5  6  1  0
  6  7  2  0
  6  8  1  0
  8  9  1  0
  9 10  1  0
 10 11  1  0
 11 12  1  0
  4 13  2  0
 13 14  1  0
 14 15  1  0
 15 16  1  0
 16 17  1  0
 17 18  1  0
 18 19  1  0
 19 20  1  0
 19 21  1  0
 21 22  2  0
 14 23  2  0
 23  2  1  0
 12  8  1  0
 21 16  1  0
  1 24  1  0
  1 25  1  0
  1 26  1  0
  3 27  1  0
  5 28  1  0
  8 29  1  0
  9 30  1  0
  9 31  1  0
 10 32  1  0
 10 33  1  0
 11 34  1  0
 11 35  1  0
 13 36  1  0
 16 37  1  0
 17 38  1  0
 17 39  1  0
 18 40  1  0
 18 41  1  0
 20 42  1  0
 20 43  1  0
 20 44  1  0
 23 45  1  0
M  END
