LIG
     RDKit          3D

 52 54  0  0  0  0  0  0  0  0999 V2000
   30.9626    8.8447    6.2276 C   0  0  0  0  0  0  0  0  0  0  0  0
   32.0522    9.8101    6.4651 C   0  0  0  0  0  0  0  0  0  0  0  0
   33.3497    9.3205    6.5852 C   0  0  0  0  0  0  0  0  0  0  0  0
   34.3914   10.2121    6.7219 C   0  0  0  0  0  0  0  0  0  0  0  0
   35.7982    9.7208    6.8041 C   0  0  0  0  0  0  0  0  0  0  0  0
   34.0905   11.5764    6.7543 C   0  0  0  0  0  0  0  0  0  0  0  0
   35.1649   12.4177    6.7580 O   0  0  0  0  0  0  0  0  0  0  0  0
   35.0258   13.4430    5.7849 C   0  0  0  0  0  0  0  0  0  0  0  0
   34.8144   14.7996    6.4458 C   0  0  0  0  0  0  0  0  0  0  0  0
   34.8020   14.9355    7.6678 O   0  0  0  0  0  0  0  0  0  0  0  0
   34.6975   15.9015    5.5979 N   0  0  0  0  0  0  0  0  0  0  0  0
   34.9575   17.1766    6.2612 C   0  0  0  0  0  0  0  0  0  0  0  0
   36.4796   17.3701    6.3275 C   0  0  0  0  0  0  0  0  0  0  0  0
   37.0522   17.3332    5.0000 O   0  0  0  0  0  0  0  0  0  0  0  0
   36.7531   16.1052    4.3131 C   0  0  0  0  0  0  0  0  0  0  0  0
   35.2378   15.8692    4.2441 C   0  0  0  0  0  0  0  0  0  0  0  0
   32.7789   12.0780    6.7634 C   0  0  0  0  0  0  0  0  0  0  0  0
   32.7041   13.3984    7.0163 O   0  0  0  0  0  0  0  0  0  0  0  0
   31.6063   14.2380    7.2201 C   0  0  0  0  0  0  0  0  0  0  0  0
   31.0430   14.6671    5.8673 C   0  0  0  0  0  0  0  0  0  0  0  0
   30.7450   16.1481    5.9696 C   0  0  0  0  0  0  0  0  0  0  0  0
   31.5856   16.6426    7.0266 N   0  0  0  0  0  0  0  0  0  0  0  0
   31.3064   17.9413    7.6172 C   0  0  0  0  0  0  0  0  0  0  0  0
   32.0130   15.5872    7.8638 C   0  0  0  0  0  0  0  0  0  0  0  0
   32.4815   15.7341    8.9872 O   0  0  0  0  0  0  0  0  0  0  0  0
   31.7623   11.1860    6.5370 C   0  0  0  0  0  0  0  0  0  0  0  0
   31.3043    7.8127    6.2565 H   0  0  0  0  0  0  0  0  0  0  0  0
   30.1924    9.0270    6.9670 H   0  0  0  0  0  0  0  0  0  0  0  0
   30.5917    9.0003    5.2117 H   0  0  0  0  0  0  0  0  0  0  0  0
   33.5497    8.2528    6.5498 H   0  0  0  0  0  0  0  0  0  0  0  0
   35.8416    8.6301    6.8964 H   0  0  0  0  0  0  0  0  0  0  0  0
   36.3004   10.1386    7.6831 H   0  0  0  0  0  0  0  0  0  0  0  0
   36.3527   10.0033    5.9034 H   0  0  0  0  0  0  0  0  0  0  0  0
   35.9895   13.4693    5.2668 H   0  0  0  0  0  0  0  0  0  0  0  0
   34.2643   13.2472    5.0187 H   0  0  0  0  0  0  0  0  0  0  0  0
   34.5183   17.2173    7.2621 H   0  0  0  0  0  0  0  0  0  0  0  0
   34.4957   17.9641    5.6546 H   0  0  0  0  0  0  0  0  0  0  0  0
   36.9689   16.6046    6.9403 H   0  0  0  0  0  0  0  0  0  0  0  0
   36.7139   18.3485    6.7580 H   0  0  0  0  0  0  0  0  0  0  0  0
   37.1649   16.1822    3.3021 H   0  0  0  0  0  0  0  0  0  0  0  0
   37.2757   15.2906    4.8252 H   0  0  0  0  0  0  0  0  0  0  0  0
   34.7548   16.6778    3.6830 H   0  0  0  0  0  0  0  0  0  0  0  0
   35.0077   14.9293    3.7374 H   0  0  0  0  0  0  0  0  0  0  0  0
   30.9261   13.7913    7.9378 H   0  0  0  0  0  0  0  0  0  0  0  0
   30.1739   14.0950    5.5363 H   0  0  0  0  0  0  0  0  0  0  0  0
   31.7988   14.5146    5.0845 H   0  0  0  0  0  0  0  0  0  0  0  0
   30.9923   16.6766    5.0433 H   0  0  0  0  0  0  0  0  0  0  0  0
   29.6967   16.3516    6.1939 H   0  0  0  0  0  0  0  0  0  0  0  0
   30.2575   18.0334    7.9072 H   0  0  0  0  0  0  0  0  0  0  0  0
   31.5240   18.7040    6.8637 H   0  0  0  0  0  0  0  0  0  0  0  0
   31.9414   18.1146    8.4902 H   0  0  0  0  0  0  0  0  0  0  0  0
   30.7513   11.5218    6.4023 H   0  0  0  0  0  0  0  0  0  0  0  0
  1  2  1  0
  2  3  2  0
  3  4  1  0
  4  5  1  0
  4  6  2  0
  6  7  1  0
  7  8  1  0
  8  9  1  0
  9 10  2  0
  9 11  1  0
 11 12  1  0
 12 13  1  0
 13 14  1  0
 14 15  1  0
 15 16  1  0
  6 17  1  0
 17 18  1  0
 18 19  1  0
 19 20  1  0
 20 21  1  0
 21 22  1  0
 22 23  1  0
 22 24  1  0
 24 25  2  0
 17 26  2  0
 26  2  1  0
 16 11  1  0
 24 19  1  0
  1 27  1  0
  1 28  1  0
  1 29  1  0
  3 30  1  0
  5 31  1  0
  5 32  1  0
  5 33  1  0
  8 34  1  0
  8 35  1  0
 12 36  1  0
 12 37  1  0
 13 38  1  0
 13 39  1  0
 15 40  1  0
 15 41  1  0
 16 42  1  0
 16 43  1  0
 19 44  1  0
 20 45  1  0
 20 46  1  0
 21 47  1  0
 21 48  1  0
 23 49  1  0
 23 50  1  0
 23 51  1  0
 26 52  1  0
M  END
