LIG
     RDKit          3D

 34 34  0  0  0  0  0  0  0  0999 V2000
   32.5242   14.3392    2.2995 C   0  0  0  0  0  0  0  0  0  0  0  0
   33.4916   15.1155    3.0511 N   0  0  0  0  0  0  0  0  0  0  0  0
   33.9446   16.3278    2.3900 C   0  0  0  0  0  0  0  0  0  0  0  0
   34.4397   14.3762    3.7681 C   0  0  0  0  0  0  0  0  0  0  0  0
   34.6423   13.1863    3.5393 O   0  0  0  0  0  0  0  0  0  0  0  0
   35.1364   15.0718    4.9315 C   0  0  0  0  0  0  0  0  0  0  0  0
   35.8592   14.1831    5.7796 O   0  0  0  0  0  0  0  0  0  0  0  0
   35.5032   14.2830    7.1517 C   0  0  0  0  0  0  0  0  0  0  0  0
   34.3152   13.4309    7.5764 C   0  0  0  0  0  0  0  0  0  0  0  0
   33.9148   13.4177    8.7419 O   0  0  0  0  0  0  0  0  0  0  0  0
   33.7881   12.6597    6.5452 N   0  0  0  0  0  0  0  0  0  0  0  0
   32.7179   11.7945    6.8056 C   0  0  0  0  0  0  0  0  0  0  0  0
   32.8232   10.4438    6.4843 C   0  0  0  0  0  0  0  0  0  0  0  0
   31.8775    9.5532    6.9960 C   0  0  0  0  0  0  0  0  0  0  0  0
   30.7877   10.0237    7.7342 C   0  0  0  0  0  0  0  0  0  0  0  0
   30.6274   11.3913    7.9053 C   0  0  0  0  0  0  0  0  0  0  0  0
   29.5324   11.9289    8.5050 O   0  0  0  0  0  0  0  0  0  0  0  0
   31.5918   12.2765    7.4672 C   0  0  0  0  0  0  0  0  0  0  0  0
   31.6773   14.9770    2.0303 H   0  0  0  0  0  0  0  0  0  0  0  0
   32.1599   13.5056    2.9087 H   0  0  0  0  0  0  0  0  0  0  0  0
   32.9959   13.9397    1.3962 H   0  0  0  0  0  0  0  0  0  0  0  0
   33.0803   16.9586    2.1640 H   0  0  0  0  0  0  0  0  0  0  0  0
   34.6388   16.8877    3.0167 H   0  0  0  0  0  0  0  0  0  0  0  0
   34.4622   16.0570    1.4643 H   0  0  0  0  0  0  0  0  0  0  0  0
   34.3616   15.5768    5.5021 H   0  0  0  0  0  0  0  0  0  0  0  0
   35.8735   15.7571    4.5100 H   0  0  0  0  0  0  0  0  0  0  0  0
   36.3603   13.9184    7.7275 H   0  0  0  0  0  0  0  0  0  0  0  0
   35.3209   15.3209    7.4358 H   0  0  0  0  0  0  0  0  0  0  0  0
   34.4971   12.3626    5.8735 H   0  0  0  0  0  0  0  0  0  0  0  0
   33.6839   10.0596    5.9441 H   0  0  0  0  0  0  0  0  0  0  0  0
   31.9986    8.4837    6.8435 H   0  0  0  0  0  0  0  0  0  0  0  0
   30.0518    9.3181    8.1124 H   0  0  0  0  0  0  0  0  0  0  0  0
   29.4545   11.5173    9.3931 H   0  0  0  0  0  0  0  0  0  0  0  0
   31.4770   13.3346    7.6778 H   0  0  0  0  0  0  0  0  0  0  0  0
  1  2  1  0
  2  3  1  0
  2  4  1  0
  4  5  2  0
  4  6  1  0
  6  7  1  0
  7  8  1  0
  8  9  1  0
  9 10  2  0
  9 11  1  0
 11 12  1  0
 12 13  2  0
 13 14  1  0
 14 15  2  0
 15 16  1  0
 16 17  1  0
 16 18  2  0
 18 12  1  0
  1 19  1  0
  1 20  1  0
  1 21  1  0
  3 22  1  0
  3 23  1  0
  3 24  1  0
  6 25  1  0
  6 26  1  0
  8 27  1  0
  8 28  1  0
 11 29  1  0
 13 30  1  0
 14 31  1  0
 15 32  1  0
 17 33  1  0
 18 34  1  0
M  END
