LIG
     RDKit          3D

 38 39  0  0  0  0  0  0  0  0999 V2000
    3.3823    2.9797   -5.3403 N   0  0  0  0  0  0  0  0  0  0  0  0
    2.6281    2.1783   -5.7086 C   0  0  0  0  0  0  0  0  0  0  0  0
    1.7137    1.1290   -6.1515 C   0  0  0  0  0  0  0  0  0  0  0  0
    0.4663    1.1253   -5.2965 C   0  0  0  0  0  0  0  0  0  0  0  0
   -0.5834    1.5957   -5.7259 O   0  0  0  0  0  0  0  0  0  0  0  0
    0.6487    0.5378   -4.0520 N   0  0  0  0  0  0  0  0  0  0  0  0
   -0.3238    0.3619   -3.0409 C   0  0  0  0  0  0  0  0  0  0  0  0
   -1.6600    0.7265   -3.1703 C   0  0  0  0  0  0  0  0  0  0  0  0
   -2.5142    0.4992   -2.1018 C   0  0  0  0  0  0  0  0  0  0  0  0
   -2.1321   -0.0592   -0.9345 N   0  0  0  0  0  0  0  0  0  0  0  0
   -0.8366   -0.4113   -0.8363 C   0  0  0  0  0  0  0  0  0  0  0  0
   -0.3661   -0.9758    0.3305 O   0  0  0  0  0  0  0  0  0  0  0  0
   -1.4092   -1.3035    1.2439 C   0  0  0  0  0  0  0  0  0  0  0  0
   -0.7838   -1.9399    2.4822 C   0  0  0  0  0  0  0  0  0  0  0  0
   -0.8225   -3.1622    2.6451 O   0  0  0  0  0  0  0  0  0  0  0  0
   -0.1874   -1.0985    3.4109 N   0  0  0  0  0  0  0  0  0  0  0  0
   -0.0748    0.3576    3.2810 C   0  0  0  0  0  0  0  0  0  0  0  0
    1.0734    0.9023    4.1366 C   0  0  0  0  0  0  0  0  0  0  0  0
    0.9513    0.5851    5.5289 O   0  0  0  0  0  0  0  0  0  0  0  0
    0.2905   -0.6617    5.7915 C   0  0  0  0  0  0  0  0  0  0  0  0
    0.3745   -1.6650    4.6380 C   0  0  0  0  0  0  0  0  0  0  0  0
    0.0954   -0.2186   -1.8438 C   0  0  0  0  0  0  0  0  0  0  0  0
    2.1898    0.1439   -6.0994 H   0  0  0  0  0  0  0  0  0  0  0  0
    1.4204    1.2865   -7.1949 H   0  0  0  0  0  0  0  0  0  0  0  0
    1.5854    0.2311   -3.8120 H   0  0  0  0  0  0  0  0  0  0  0  0
   -2.0655    1.1794   -4.0660 H   0  0  0  0  0  0  0  0  0  0  0  0
   -3.5645    0.7713   -2.1644 H   0  0  0  0  0  0  0  0  0  0  0  0
   -1.9818   -0.4194    1.5500 H   0  0  0  0  0  0  0  0  0  0  0  0
   -2.0942   -2.0391    0.8022 H   0  0  0  0  0  0  0  0  0  0  0  0
    0.0723    0.6390    2.2360 H   0  0  0  0  0  0  0  0  0  0  0  0
   -1.0295    0.7750    3.6216 H   0  0  0  0  0  0  0  0  0  0  0  0
    2.0317    0.4997    3.7875 H   0  0  0  0  0  0  0  0  0  0  0  0
    1.1256    1.9922    4.0499 H   0  0  0  0  0  0  0  0  0  0  0  0
   -0.7578   -0.4328    6.0164 H   0  0  0  0  0  0  0  0  0  0  0  0
    0.7348   -1.0861    6.6975 H   0  0  0  0  0  0  0  0  0  0  0  0
    1.4217   -1.9058    4.4204 H   0  0  0  0  0  0  0  0  0  0  0  0
   -0.1408   -2.5934    4.9032 H   0  0  0  0  0  0  0  0  0  0  0  0
    1.1221   -0.5245   -1.6794 H   0  0  0  0  0  0  0  0  0  0  0  0
  1  2  3  0
  2  3  1  0
  3  4  1  0
  4  5  2  0
  4  6  1  0
  6  7  1  0
  7  8  2  0
  8  9  1  0
  9 10  2  0
 10 11  1  0
 11 12  1  0
 12 13  1  0
 13 14  1  0
 14 15  2  0
 14 16  1  0
 16 17  1  0
 17 18  1  0
 18 19  1  0
 19 20  1  0
 20 21  1  0
 11 22  2  0
 22  7  1  0
 21 16  1  0
  3 23  1  0
  3 24  1  0
  6 25  1  0
  8 26  1  0
  9 27  1  0
 13 28  1  0
 13 29  1  0
 17 30  1  0
 17 31  1  0
 18 32  1  0
 18 33  1  0
 20 34  1  0
 20 35  1  0
 21 36  1  0
 21 37  1  0
 22 38  1  0
M  END
