LIG
     RDKit          3D

 44 45  0  0  0  0  0  0  0  0999 V2000
   30.5269    9.7526    8.2580 C   0  0  0  0  0  0  0  0  0  0  0  0
   30.8957   10.9746    7.4772 C   0  0  0  0  0  0  0  0  0  0  0  0
   30.1026   11.7227    6.6341 C   0  0  0  0  0  0  0  0  0  0  0  0
   30.7233   12.6126    5.7446 C   0  0  0  0  0  0  0  0  0  0  0  0
   32.1174   12.6379    5.6642 C   0  0  0  0  0  0  0  0  0  0  0  0
   32.7333   13.1616    4.5298 N   0  0  0  0  0  0  0  0  0  0  0  0
   34.0064   13.6907    4.5173 C   0  0  0  0  0  0  0  0  0  0  0  0
   34.5939   14.0788    5.5214 O   0  0  0  0  0  0  0  0  0  0  0  0
   34.5761   13.8782    3.1158 C   0  0  0  0  0  0  0  0  0  0  0  0
   33.9590   15.0629    2.3986 C   0  0  0  0  0  0  0  0  0  0  0  0
   34.2280   14.7168    0.9564 C   0  0  0  0  0  0  0  0  0  0  0  0
   34.0839   13.2106    0.9382 C   0  0  0  0  0  0  0  0  0  0  0  0
   34.2832   12.7448    2.2790 O   0  0  0  0  0  0  0  0  0  0  0  0
   32.8303   12.1267    6.7209 C   0  0  0  0  0  0  0  0  0  0  0  0
   32.0648   11.6342    7.7551 C   0  0  0  0  0  0  0  0  0  0  0  0
   31.9987   12.6034    8.7734 O   0  0  0  0  0  0  0  0  0  0  0  0
   30.7504   13.3193    8.8591 C   0  0  0  0  0  0  0  0  0  0  0  0
   30.7980   14.2098   10.0564 C   0  0  0  0  0  0  0  0  0  0  0  0
   31.8610   14.5139   10.5932 O   0  0  0  0  0  0  0  0  0  0  0  0
   29.5867   14.6600   10.5449 N   0  0  0  0  0  0  0  0  0  0  0  0
   28.3944   14.7969    9.7369 C   0  0  0  0  0  0  0  0  0  0  0  0
   29.6561   15.2464   11.8502 C   0  0  0  0  0  0  0  0  0  0  0  0
   30.3053   10.0057    9.2931 H   0  0  0  0  0  0  0  0  0  0  0  0
   31.3549    9.0357    8.2414 H   0  0  0  0  0  0  0  0  0  0  0  0
   29.6602    9.2397    7.8409 H   0  0  0  0  0  0  0  0  0  0  0  0
   29.0220   11.6398    6.6439 H   0  0  0  0  0  0  0  0  0  0  0  0
   30.1148   13.1747    5.0408 H   0  0  0  0  0  0  0  0  0  0  0  0
   32.2450   13.1144    3.6457 H   0  0  0  0  0  0  0  0  0  0  0  0
   35.6668   13.9642    3.1838 H   0  0  0  0  0  0  0  0  0  0  0  0
   32.8779   15.1267    2.5707 H   0  0  0  0  0  0  0  0  0  0  0  0
   34.4016   16.0161    2.7023 H   0  0  0  0  0  0  0  0  0  0  0  0
   33.5583   15.2176    0.2521 H   0  0  0  0  0  0  0  0  0  0  0  0
   35.2562   14.9933    0.6937 H   0  0  0  0  0  0  0  0  0  0  0  0
   34.8062   12.7315    0.2709 H   0  0  0  0  0  0  0  0  0  0  0  0
   33.0765   12.9122    0.6305 H   0  0  0  0  0  0  0  0  0  0  0  0
   33.8860   12.3252    6.8689 H   0  0  0  0  0  0  0  0  0  0  0  0
   29.9085   12.6392    8.9802 H   0  0  0  0  0  0  0  0  0  0  0  0
   30.6287   13.9816    7.9985 H   0  0  0  0  0  0  0  0  0  0  0  0
   27.5217   14.8663   10.3823 H   0  0  0  0  0  0  0  0  0  0  0  0
   28.2588   13.9385    9.0763 H   0  0  0  0  0  0  0  0  0  0  0  0
   28.4837   15.6861    9.1081 H   0  0  0  0  0  0  0  0  0  0  0  0
   30.1943   14.5534   12.4933 H   0  0  0  0  0  0  0  0  0  0  0  0
   28.6636   15.3610   12.2795 H   0  0  0  0  0  0  0  0  0  0  0  0
   30.2058   16.1898   11.8158 H   0  0  0  0  0  0  0  0  0  0  0  0
  1  2  1  0
  2  3  2  0
  3  4  1  0
  4  5  2  0
  5  6  1  0
  6  7  1  0
  7  8  2  0
  7  9  1  0
  9 10  1  0
 10 11  1  0
 11 12  1  0
 12 13  1  0
  5 14  1  0
 14 15  2  0
 15 16  1  0
 16 17  1  0
 17 18  1  0
 18 19  2  0
 18 20  1  0
 20 21  1  0
 20 22  1  0
 15  2  1  0
 13  9  1  0
  1 23  1  0
  1 24  1  0
  1 25  1  0
  3 26  1  0
  4 27  1  0
  6 28  1  0
  9 29  1  0
 10 30  1  0
 10 31  1  0
 11 32  1  0
 11 33  1  0
 12 34  1  0
 12 35  1  0
 14 36  1  0
 17 37  1  0
 17 38  1  0
 21 39  1  0
 21 40  1  0
 21 41  1  0
 22 42  1  0
 22 43  1  0
 22 44  1  0
M  END
