LIG
     RDKit          3D

 35 36  0  0  0  0  0  0  0  0999 V2000
   28.3459   16.0606    8.6119 C   0  0  0  0  0  0  0  0  0  0  0  0
   28.9163   15.1643    9.5799 N   0  0  0  0  0  0  0  0  0  0  0  0
   28.4805   13.8140    9.4739 C   0  0  0  0  0  0  0  0  0  0  0  0
   29.5890   13.1913    8.7009 C   0  0  0  0  0  0  0  0  0  0  0  0
   30.8648   13.8429    9.2350 C   0  0  0  0  0  0  0  0  0  0  0  0
   31.8272   13.9319    8.1955 O   0  0  0  0  0  0  0  0  0  0  0  0
   33.2131   13.9436    8.5532 C   0  0  0  0  0  0  0  0  0  0  0  0
   34.1089   13.5137    7.3654 C   0  0  0  0  0  0  0  0  0  0  0  0
   35.3295   13.5489    7.4356 O   0  0  0  0  0  0  0  0  0  0  0  0
   33.3807   13.1364    6.2254 N   0  0  0  0  0  0  0  0  0  0  0  0
   32.8804   11.8010    6.2389 C   0  0  0  0  0  0  0  0  0  0  0  0
   33.6676   10.6824    6.0657 C   0  0  0  0  0  0  0  0  0  0  0  0
   33.1348    9.4304    6.3928 C   0  0  0  0  0  0  0  0  0  0  0  0
   31.9010    9.3471    7.0340 C   0  0  0  0  0  0  0  0  0  0  0  0
   31.4651    8.1958    7.5528 F   0  0  0  0  0  0  0  0  0  0  0  0
   31.0912   10.4531    7.1226 C   0  0  0  0  0  0  0  0  0  0  0  0
   31.5402   11.6219    6.5517 C   0  0  0  0  0  0  0  0  0  0  0  0
   30.6531   12.6075    6.2454 O   0  0  0  0  0  0  0  0  0  0  0  0
   30.3121   15.1703    9.7023 C   0  0  0  0  0  0  0  0  0  0  0  0
   31.0021   16.1076   10.0765 O   0  0  0  0  0  0  0  0  0  0  0  0
   28.4301   15.6353    7.6066 H   0  0  0  0  0  0  0  0  0  0  0  0
   28.8366   17.0310    8.5895 H   0  0  0  0  0  0  0  0  0  0  0  0
   27.2987   16.1478    8.8998 H   0  0  0  0  0  0  0  0  0  0  0  0
   27.5380   13.7450    8.9343 H   0  0  0  0  0  0  0  0  0  0  0  0
   28.3425   13.4409   10.4876 H   0  0  0  0  0  0  0  0  0  0  0  0
   29.5942   12.1064    8.7497 H   0  0  0  0  0  0  0  0  0  0  0  0
   29.4061   13.4846    7.6670 H   0  0  0  0  0  0  0  0  0  0  0  0
   31.2506   13.3700   10.1279 H   0  0  0  0  0  0  0  0  0  0  0  0
   33.4934   14.9531    8.8504 H   0  0  0  0  0  0  0  0  0  0  0  0
   33.3980   13.2483    9.3715 H   0  0  0  0  0  0  0  0  0  0  0  0
   32.5734   13.7528    6.2556 H   0  0  0  0  0  0  0  0  0  0  0  0
   34.6941   10.7761    5.7205 H   0  0  0  0  0  0  0  0  0  0  0  0
   33.7319    8.5344    6.2548 H   0  0  0  0  0  0  0  0  0  0  0  0
   30.1084   10.3518    7.5609 H   0  0  0  0  0  0  0  0  0  0  0  0
   30.9499   13.0023    5.4066 H   0  0  0  0  0  0  0  0  0  0  0  0
  1  2  1  0
  2  3  1  0
  3  4  1  0
  4  5  1  0
  5  6  1  0
  6  7  1  0
  7  8  1  0
  8  9  2  0
  8 10  1  0
 10 11  1  0
 11 12  2  0
 12 13  1  0
 13 14  2  0
 14 15  1  0
 14 16  1  0
 16 17  2  0
 17 18  1  0
  5 19  1  0
 19 20  2  0
 19  2  1  0
 17 11  1  0
  1 21  1  0
  1 22  1  0
  1 23  1  0
  3 24  1  0
  3 25  1  0
  4 26  1  0
  4 27  1  0
  5 28  1  0
  7 29  1  0
  7 30  1  0
 10 31  1  0
 12 32  1  0
 13 33  1  0
 16 34  1  0
 18 35  1  0
M  END
