LIG
     RDKit          3D

 37 37  0  0  0  0  0  0  0  0999 V2000
   34.2642   10.0111    3.9435 C   0  0  0  0  0  0  0  0  0  0  0  0
   33.4751   10.7223    4.9891 C   0  0  0  0  0  0  0  0  0  0  0  0
   32.0826   10.5559    4.9944 C   0  0  0  0  0  0  0  0  0  0  0  0
   31.3048   11.3118    5.8549 C   0  0  0  0  0  0  0  0  0  0  0  0
   31.9239   12.1583    6.7477 C   0  0  0  0  0  0  0  0  0  0  0  0
   31.2734   12.9780    7.6038 O   0  0  0  0  0  0  0  0  0  0  0  0
   31.5944   14.3510    7.3903 C   0  0  0  0  0  0  0  0  0  0  0  0
   32.1875   14.9714    8.6595 C   0  0  0  0  0  0  0  0  0  0  0  0
   32.6699   14.2386    9.5259 O   0  0  0  0  0  0  0  0  0  0  0  0
   32.2923   16.3620    8.7515 N   0  0  0  0  0  0  0  0  0  0  0  0
   33.0624   16.9639    9.8136 C   0  0  0  0  0  0  0  0  0  0  0  0
   31.6262   17.3193    7.8827 C   0  0  0  0  0  0  0  0  0  0  0  0
   33.2798   12.1786    6.8720 C   0  0  0  0  0  0  0  0  0  0  0  0
   34.0675   11.5708    5.9347 C   0  0  0  0  0  0  0  0  0  0  0  0
   35.4102   11.9912    5.8987 N   0  0  0  0  0  0  0  0  0  0  0  0
   35.9402   12.8034    6.9021 C   0  0  0  0  0  0  0  0  0  0  0  0
   35.8867   12.5475    8.1035 O   0  0  0  0  0  0  0  0  0  0  0  0
   36.5374   14.1004    6.4087 C   0  0  0  0  0  0  0  0  0  0  0  0
   35.3052   15.4254    6.4312 S   0  0  0  0  0  0  0  0  0  0  0  0
   34.5282   10.7013    3.1360 H   0  0  0  0  0  0  0  0  0  0  0  0
   33.7056    9.1741    3.5108 H   0  0  0  0  0  0  0  0  0  0  0  0
   35.1825    9.5927    4.3692 H   0  0  0  0  0  0  0  0  0  0  0  0
   31.5956    9.8954    4.2799 H   0  0  0  0  0  0  0  0  0  0  0  0
   30.2360   11.2728    5.7648 H   0  0  0  0  0  0  0  0  0  0  0  0
   30.7123   14.8298    6.9780 H   0  0  0  0  0  0  0  0  0  0  0  0
   32.3461   14.5001    6.6026 H   0  0  0  0  0  0  0  0  0  0  0  0
   33.8135   16.2760   10.2034 H   0  0  0  0  0  0  0  0  0  0  0  0
   33.6197   17.8158    9.4073 H   0  0  0  0  0  0  0  0  0  0  0  0
   32.4001   17.3421   10.5891 H   0  0  0  0  0  0  0  0  0  0  0  0
   32.3887   18.0064    7.4971 H   0  0  0  0  0  0  0  0  0  0  0  0
   30.9111   17.9158    8.4577 H   0  0  0  0  0  0  0  0  0  0  0  0
   31.1603   16.8734    7.0033 H   0  0  0  0  0  0  0  0  0  0  0  0
   33.6893   12.7762    7.6791 H   0  0  0  0  0  0  0  0  0  0  0  0
   35.8681   11.9479    4.9996 H   0  0  0  0  0  0  0  0  0  0  0  0
   37.3808   14.3669    7.0532 H   0  0  0  0  0  0  0  0  0  0  0  0
   36.9219   13.9802    5.3914 H   0  0  0  0  0  0  0  0  0  0  0  0
   34.9670   15.2694    7.7254 H   0  0  0  0  0  0  0  0  0  0  0  0
  1  2  1  0
  2  3  2  0
  3  4  1  0
  4  5  2  0
  5  6  1  0
  6  7  1  0
  7  8  1  0
  8  9  2  0
  8 10  1  0
 10 11  1  0
 10 12  1  0
  5 13  1  0
 13 14  2  0
 14 15  1  0
 15 16  1  0
 16 17  2  0
 16 18  1  0
 18 19  1  0
 14  2  1  0
  1 20  1  0
  1 21  1  0
  1 22  1  0
  3 23  1  0
  4 24  1  0
  7 25  1  0
  7 26  1  0
 11 27  1  0
 11 28  1  0
 11 29  1  0
 12 30  1  0
 12 31  1  0
 12 32  1  0
 13 33  1  0
 15 34  1  0
 18 35  1  0
 18 36  1  0
 19 37  1  0
M  END
