LIG
     RDKit          3D

 41 42  0  0  0  0  0  0  0  0999 V2000
   34.4770    9.6170    4.1420 C   0  0  0  0  0  0  0  0  0  0  0  0
   34.7220   11.0190    4.6240 C   0  0  0  0  0  0  0  0  0  0  0  0
   35.7630   11.6170    4.3630 O   0  0  0  0  0  0  0  0  0  0  0  0
   33.6960   11.5950    5.3080 N   0  0  0  0  0  0  0  0  0  0  0  0
   33.0199   11.0044    6.9513 C   0  0  0  0  0  0  0  0  0  0  0  0
   31.5630    9.4800    8.9430 C   0  0  0  0  0  0  0  0  0  0  0  0
   32.6580    9.2460    8.1260 C   0  0  0  0  0  0  0  0  0  0  0  0
   33.3470   10.2740    7.4930 C   0  0  0  0  0  0  0  0  0  0  0  0
   34.5920    9.9920    6.6940 C   0  0  0  0  0  0  0  0  0  0  0  0
   32.8900   11.5720    7.6690 C   0  0  0  0  0  0  0  0  0  0  0  0
   33.3940   12.4720    6.7660 O   0  0  0  0  0  0  0  0  0  0  0  0
   32.5070   13.2300    6.0470 C   0  0  0  0  0  0  0  0  0  0  0  0
   32.8430   14.5690    6.5820 C   0  0  0  0  0  0  0  0  0  0  0  0
   32.2450   15.0040    7.5510 O   0  0  0  0  0  0  0  0  0  0  0  0
   33.9260   15.1770    6.0590 N   0  0  0  0  0  0  0  0  0  0  0  0
   34.7260   15.9040    7.0650 C   0  0  0  0  0  0  0  0  0  0  0  0
   36.2000   15.5640    6.9400 C   0  0  0  0  0  0  0  0  0  0  0  0
   36.6530   15.7410    5.6230 O   0  0  0  0  0  0  0  0  0  0  0  0
   35.9790   14.7950    4.8070 C   0  0  0  0  0  0  0  0  0  0  0  0
   34.5050   15.1130    4.7140 C   0  0  0  0  0  0  0  0  0  0  0  0
   31.8380   11.8440    8.5230 C   0  0  0  0  0  0  0  0  0  0  0  0
   35.3539    9.0002    4.3652 H   0  0  0  0  0  0  0  0  0  0  0  0
   33.6021    9.2070    4.6556 H   0  0  0  0  0  0  0  0  0  0  0  0
   34.3071    9.5775    3.0608 H   0  0  0  0  0  0  0  0  0  0  0  0
   33.6741   11.4572    6.3151 H   0  0  0  0  0  0  0  0  0  0  0  0
   30.7067    9.9955    8.5128 H   0  0  0  0  0  0  0  0  0  0  0  0
   32.9798    8.2016    7.9793 H   0  0  0  0  0  0  0  0  0  0  0  0
   34.5070   10.4221    5.6912 H   0  0  0  0  0  0  0  0  0  0  0  0
   34.7571    8.9160    6.5762 H   0  0  0  0  0  0  0  0  0  0  0  0
   35.4666   10.4130    7.1993 H   0  0  0  0  0  0  0  0  0  0  0  0
   32.7492   13.2191    5.0106 H   0  0  0  0  0  0  0  0  0  0  0  0
   31.4919   13.0137    6.2704 H   0  0  0  0  0  0  0  0  0  0  0  0
   34.3448   15.5890    8.0435 H   0  0  0  0  0  0  0  0  0  0  0  0
   34.5687   16.9808    6.9562 H   0  0  0  0  0  0  0  0  0  0  0  0
   36.7928   16.2030    7.5959 H   0  0  0  0  0  0  0  0  0  0  0  0
   36.3748   14.5280    7.2269 H   0  0  0  0  0  0  0  0  0  0  0  0
   36.4404   14.8123    3.8229 H   0  0  0  0  0  0  0  0  0  0  0  0
   36.1326   13.8094    5.2437 H   0  0  0  0  0  0  0  0  0  0  0  0
   34.3487   16.0981    4.2651 H   0  0  0  0  0  0  0  0  0  0  0  0
   33.9810   14.3681    4.1123 H   0  0  0  0  0  0  0  0  0  0  0  0
   31.6840   11.2540    9.4256 H   0  0  0  0  0  0  0  0  0  0  0  0
  1  2  1  0
  2  3  2  0
  2  4  1  0
  4  5  1  0
  5  6  4  0
  6  7  4  0
  7  8  4  0
  8  9  1  0
  8 10  4  0
 10 11  1  0
 11 12  1  0
 12 13  1  0
 13 14  2  0
 13 15  1  0
 15 16  1  0
 16 17  1  0
 17 18  1  0
 18 19  1  0
 19 20  1  0
 10 21  4  0
 21  5  4  0
 20 15  1  0
  1 22  1  0
  1 23  1  0
  1 24  1  0
  4 25  1  0
  6 26  1  0
  7 27  1  0
  9 28  1  0
  9 29  1  0
  9 30  1  0
 12 31  1  0
 12 32  1  0
 16 33  1  0
 16 34  1  0
 17 35  1  0
 17 36  1  0
 19 37  1  0
 19 38  1  0
 20 39  1  0
 20 40  1  0
 21 41  1  0
M  END
