LIG
     RDKit          3D

 27 27  0  0  0  0  0  0  0  0999 V2000
   29.0838   14.4789    8.6770 C   0  0  0  0  0  0  0  0  0  0  0  0
   29.5869   13.3460    7.8268 C   0  0  0  0  0  0  0  0  0  0  0  0
   28.8646   12.7929    6.9994 O   0  0  0  0  0  0  0  0  0  0  0  0
   30.9270   13.0426    8.0129 N   0  0  0  0  0  0  0  0  0  0  0  0
   31.4783   11.8357    7.5352 C   0  0  0  0  0  0  0  0  0  0  0  0
   30.8096   10.6389    7.8114 C   0  0  0  0  0  0  0  0  0  0  0  0
   31.3162    9.4199    7.3692 C   0  0  0  0  0  0  0  0  0  0  0  0
   32.4404    9.4001    6.5532 C   0  0  0  0  0  0  0  0  0  0  0  0
   33.0998   10.5853    6.2636 C   0  0  0  0  0  0  0  0  0  0  0  0
   34.2107   10.5361    5.5110 F   0  0  0  0  0  0  0  0  0  0  0  0
   32.6834   11.7971    6.8216 C   0  0  0  0  0  0  0  0  0  0  0  0
   33.5171   12.9256    6.6456 N   0  0  0  0  0  0  0  0  0  0  0  0
   34.0990   13.5152    7.7628 C   0  0  0  0  0  0  0  0  0  0  0  0
   33.7875   13.2781    8.9266 O   0  0  0  0  0  0  0  0  0  0  0  0
   35.1989   14.4955    7.3826 C   0  0  0  0  0  0  0  0  0  0  0  0
   35.9438   13.9780    6.2850 O   0  0  0  0  0  0  0  0  0  0  0  0
   28.7822   15.3080    8.0313 H   0  0  0  0  0  0  0  0  0  0  0  0
   28.2279   14.1343    9.2621 H   0  0  0  0  0  0  0  0  0  0  0  0
   29.8538   14.8327    9.3684 H   0  0  0  0  0  0  0  0  0  0  0  0
   31.5619   13.8083    8.1881 H   0  0  0  0  0  0  0  0  0  0  0  0
   29.9000   10.6442    8.4081 H   0  0  0  0  0  0  0  0  0  0  0  0
   30.8058    8.4962    7.6375 H   0  0  0  0  0  0  0  0  0  0  0  0
   32.8347    8.4653    6.1754 H   0  0  0  0  0  0  0  0  0  0  0  0
   34.2009   12.8489    5.8910 H   0  0  0  0  0  0  0  0  0  0  0  0
   35.8724   14.6405    8.2301 H   0  0  0  0  0  0  0  0  0  0  0  0
   34.7608   15.4479    7.0876 H   0  0  0  0  0  0  0  0  0  0  0  0
   36.4044   13.1886    6.6342 H   0  0  0  0  0  0  0  0  0  0  0  0
  1  2  1  0
  2  3  2  0
  2  4  1  0
  4  5  1  0
  5  6  2  0
  6  7  1  0
  7  8  2  0
  8  9  1  0
  9 10  1  0
  9 11  2  0
 11 12  1  0
 12 13  1  0
 13 14  2  0
 13 15  1  0
 15 16  1  0
 11  5  1  0
  1 17  1  0
  1 18  1  0
  1 19  1  0
  4 20  1  0
  6 21  1  0
  7 22  1  0
  8 23  1  0
 12 24  1  0
 15 25  1  0
 15 26  1  0
 16 27  1  0
M  END
