LIG
     RDKit          3D

 37 37  0  0  0  0  0  0  0  0999 V2000
   32.9764    8.7178    6.1451 C   0  0  0  0  0  0  0  0  0  0  0  0
   32.4056   10.0490    6.3959 C   0  0  0  0  0  0  0  0  0  0  0  0
   33.0897   11.1390    5.8875 C   0  0  0  0  0  0  0  0  0  0  0  0
   32.6690   12.3895    6.2672 C   0  0  0  0  0  0  0  0  0  0  0  0
   33.5825   13.4335    6.2130 N   0  0  0  0  0  0  0  0  0  0  0  0
   34.2936   13.6855    7.3970 C   0  0  0  0  0  0  0  0  0  0  0  0
   34.0931   13.1674    8.4940 O   0  0  0  0  0  0  0  0  0  0  0  0
   35.3374   14.7477    7.2090 C   0  0  0  0  0  0  0  0  0  0  0  0
   36.0619   14.7098    5.5355 S   0  0  0  0  0  0  0  0  0  0  0  0
   31.4865   12.5844    6.9523 C   0  0  0  0  0  0  0  0  0  0  0  0
   30.8062   11.4923    7.4536 C   0  0  0  0  0  0  0  0  0  0  0  0
   29.7262   11.5515    8.2608 O   0  0  0  0  0  0  0  0  0  0  0  0
   29.2492   12.8339    8.5925 C   0  0  0  0  0  0  0  0  0  0  0  0
   30.0970   13.7614    9.4961 C   0  0  0  0  0  0  0  0  0  0  0  0
   31.3220   13.6942    9.6015 O   0  0  0  0  0  0  0  0  0  0  0  0
   29.3955   14.7237   10.1843 N   0  0  0  0  0  0  0  0  0  0  0  0
   30.0735   15.3743   11.2969 C   0  0  0  0  0  0  0  0  0  0  0  0
   28.0040   15.0127    9.9026 C   0  0  0  0  0  0  0  0  0  0  0  0
   31.2779   10.2166    7.1962 C   0  0  0  0  0  0  0  0  0  0  0  0
   34.0024    8.6529    6.5016 H   0  0  0  0  0  0  0  0  0  0  0  0
   33.0502    8.5738    5.0719 H   0  0  0  0  0  0  0  0  0  0  0  0
   32.3784    7.9604    6.6452 H   0  0  0  0  0  0  0  0  0  0  0  0
   34.0312   10.9999    5.3643 H   0  0  0  0  0  0  0  0  0  0  0  0
   34.2422   13.4174    5.4387 H   0  0  0  0  0  0  0  0  0  0  0  0
   34.8487   15.7053    7.3536 H   0  0  0  0  0  0  0  0  0  0  0  0
   36.1206   14.5996    7.9547 H   0  0  0  0  0  0  0  0  0  0  0  0
   35.8377   16.0158    5.2737 H   0  0  0  0  0  0  0  0  0  0  0  0
   31.2067   13.5996    7.1899 H   0  0  0  0  0  0  0  0  0  0  0  0
   28.9739   13.3812    7.6807 H   0  0  0  0  0  0  0  0  0  0  0  0
   28.3182   12.6269    9.1190 H   0  0  0  0  0  0  0  0  0  0  0  0
   30.5754   16.2774   10.9425 H   0  0  0  0  0  0  0  0  0  0  0  0
   29.3555   15.5867   12.0910 H   0  0  0  0  0  0  0  0  0  0  0  0
   30.8437   14.7239   11.7090 H   0  0  0  0  0  0  0  0  0  0  0  0
   27.8860   16.0181    9.5119 H   0  0  0  0  0  0  0  0  0  0  0  0
   27.4386   14.8210   10.8084 H   0  0  0  0  0  0  0  0  0  0  0  0
   27.5873   14.4150    9.0976 H   0  0  0  0  0  0  0  0  0  0  0  0
   30.7683    9.3591    7.6337 H   0  0  0  0  0  0  0  0  0  0  0  0
  1  2  1  0
  2  3  2  0
  3  4  1  0
  4  5  1  0
  5  6  1  0
  6  7  2  0
  6  8  1  0
  8  9  1  0
  4 10  2  0
 10 11  1  0
 11 12  1  0
 12 13  1  0
 13 14  1  0
 14 15  2  0
 14 16  1  0
 16 17  1  0
 16 18  1  0
 11 19  2  0
 19  2  1  0
  1 20  1  0
  1 21  1  0
  1 22  1  0
  3 23  1  0
  5 24  1  0
  8 25  1  0
  8 26  1  0
  9 27  1  0
 10 28  1  0
 13 29  1  0
 13 30  1  0
 17 31  1  0
 17 32  1  0
 17 33  1  0
 18 34  1  0
 18 35  1  0
 18 36  1  0
 19 37  1  0
M  END
