LIG
     RDKit          3D

 49 51  0  0  0  0  0  0  0  0999 V2000
   33.8992    9.2260    5.6356 C   0  0  0  0  0  0  0  0  0  0  0  0
   32.7589    9.6129    6.5376 C   0  0  0  0  0  0  0  0  0  0  0  0
   32.0051    8.6370    7.1866 C   0  0  0  0  0  0  0  0  0  0  0  0
   30.9855    8.9402    8.0714 C   0  0  0  0  0  0  0  0  0  0  0  0
   30.7373   10.2611    8.3504 C   0  0  0  0  0  0  0  0  0  0  0  0
   31.4830   11.2661    7.7373 C   0  0  0  0  0  0  0  0  0  0  0  0
   31.3940   12.4893    8.3218 O   0  0  0  0  0  0  0  0  0  0  0  0
   30.3649   13.3014    7.8555 C   0  0  0  0  0  0  0  0  0  0  0  0
   28.9721   12.7252    7.6420 C   0  0  0  0  0  0  0  0  0  0  0  0
   28.1716   13.9826    7.4794 C   0  0  0  0  0  0  0  0  0  0  0  0
   28.7459   14.8388    8.4791 N   0  0  0  0  0  0  0  0  0  0  0  0
   28.4182   16.2135    8.4660 C   0  0  0  0  0  0  0  0  0  0  0  0
   30.0685   14.4791    8.7699 C   0  0  0  0  0  0  0  0  0  0  0  0
   30.8255   15.0914    9.5074 O   0  0  0  0  0  0  0  0  0  0  0  0
   32.4698   10.9437    6.8011 C   0  0  0  0  0  0  0  0  0  0  0  0
   33.3562   11.7881    6.2270 O   0  0  0  0  0  0  0  0  0  0  0  0
   32.8415   12.9013    5.5244 C   0  0  0  0  0  0  0  0  0  0  0  0
   33.5367   13.9591    6.3220 C   0  0  0  0  0  0  0  0  0  0  0  0
   33.3117   14.0640    7.5315 O   0  0  0  0  0  0  0  0  0  0  0  0
   34.5104   14.7167    5.7124 N   0  0  0  0  0  0  0  0  0  0  0  0
   35.6730   14.9339    6.5623 C   0  0  0  0  0  0  0  0  0  0  0  0
   36.6702   13.8085    6.2624 C   0  0  0  0  0  0  0  0  0  0  0  0
   37.1095   13.9296    4.8944 O   0  0  0  0  0  0  0  0  0  0  0  0
   35.9992   13.7323    4.0024 C   0  0  0  0  0  0  0  0  0  0  0  0
   34.8617   14.7210    4.2890 C   0  0  0  0  0  0  0  0  0  0  0  0
   34.4600    8.3945    6.0616 H   0  0  0  0  0  0  0  0  0  0  0  0
   33.5207    8.9356    4.6537 H   0  0  0  0  0  0  0  0  0  0  0  0
   34.6267   10.0280    5.4800 H   0  0  0  0  0  0  0  0  0  0  0  0
   32.2435    7.6009    7.0523 H   0  0  0  0  0  0  0  0  0  0  0  0
   30.4326    8.1483    8.5675 H   0  0  0  0  0  0  0  0  0  0  0  0
   30.0170   10.4975    9.1175 H   0  0  0  0  0  0  0  0  0  0  0  0
   30.6791   13.7610    6.9195 H   0  0  0  0  0  0  0  0  0  0  0  0
   28.6460   12.1902    8.5320 H   0  0  0  0  0  0  0  0  0  0  0  0
   28.8955   12.0647    6.7762 H   0  0  0  0  0  0  0  0  0  0  0  0
   27.1079   13.8501    7.6488 H   0  0  0  0  0  0  0  0  0  0  0  0
   28.3317   14.4172    6.4855 H   0  0  0  0  0  0  0  0  0  0  0  0
   29.2055   16.8132    8.8917 H   0  0  0  0  0  0  0  0  0  0  0  0
   27.4759   16.3225    8.9988 H   0  0  0  0  0  0  0  0  0  0  0  0
   28.3754   16.5278    7.4256 H   0  0  0  0  0  0  0  0  0  0  0  0
   31.7594   12.9960    5.5111 H   0  0  0  0  0  0  0  0  0  0  0  0
   33.1796   12.8184    4.4933 H   0  0  0  0  0  0  0  0  0  0  0  0
   36.1034   15.8914    6.2808 H   0  0  0  0  0  0  0  0  0  0  0  0
   35.4229   14.9495    7.6265 H   0  0  0  0  0  0  0  0  0  0  0  0
   36.2174   12.8215    6.3937 H   0  0  0  0  0  0  0  0  0  0  0  0
   37.5538   13.8381    6.9010 H   0  0  0  0  0  0  0  0  0  0  0  0
   36.3633   13.8659    2.9790 H   0  0  0  0  0  0  0  0  0  0  0  0
   35.6549   12.6959    4.0994 H   0  0  0  0  0  0  0  0  0  0  0  0
   35.2083   15.7285    4.0429 H   0  0  0  0  0  0  0  0  0  0  0  0
   33.9850   14.5230    3.6673 H   0  0  0  0  0  0  0  0  0  0  0  0
  1  2  1  0
  2  3  2  0
  3  4  1  0
  4  5  2  0
  5  6  1  0
  6  7  1  0
  7  8  1  0
  8  9  1  0
  9 10  1  0
 10 11  1  0
 11 12  1  0
 11 13  1  0
 13 14  2  0
  6 15  2  0
 15 16  1  0
 16 17  1  0
 17 18  1  0
 18 19  2  0
 18 20  1  0
 20 21  1  0
 21 22  1  0
 22 23  1  0
 23 24  1  0
 24 25  1  0
 15  2  1  0
 25 20  1  0
 13  8  1  0
  1 26  1  0
  1 27  1  0
  1 28  1  0
  3 29  1  0
  4 30  1  0
  5 31  1  0
  8 32  1  0
  9 33  1  0
  9 34  1  0
 10 35  1  0
 10 36  1  0
 12 37  1  0
 12 38  1  0
 12 39  1  0
 17 40  1  0
 17 41  1  0
 21 42  1  0
 21 43  1  0
 22 44  1  0
 22 45  1  0
 24 46  1  0
 24 47  1  0
 25 48  1  0
 25 49  1  0
M  END
