LIG
     RDKit          3D

 34 34  0  0  0  0  0  0  0  0999 V2000
   30.9134   15.7921   11.3620 C   0  0  0  0  0  0  0  0  0  0  0  0
   29.8692   15.0672   10.6533 N   0  0  0  0  0  0  0  0  0  0  0  0
   28.7292   14.6950   11.4454 C   0  0  0  0  0  0  0  0  0  0  0  0
   30.3289   14.1429    9.7149 C   0  0  0  0  0  0  0  0  0  0  0  0
   31.5414   13.9922    9.5815 O   0  0  0  0  0  0  0  0  0  0  0  0
   29.2911   13.4381    8.7974 C   0  0  0  0  0  0  0  0  0  0  0  0
   29.4237   12.0603    8.4946 O   0  0  0  0  0  0  0  0  0  0  0  0
   30.5096   11.6255    7.8049 C   0  0  0  0  0  0  0  0  0  0  0  0
   30.6806   10.2414    7.7237 C   0  0  0  0  0  0  0  0  0  0  0  0
   31.7012    9.6974    6.9389 C   0  0  0  0  0  0  0  0  0  0  0  0
   32.5948   10.5424    6.3020 C   0  0  0  0  0  0  0  0  0  0  0  0
   33.5377   10.0408    5.4969 F   0  0  0  0  0  0  0  0  0  0  0  0
   32.5475   11.9020    6.5604 C   0  0  0  0  0  0  0  0  0  0  0  0
   33.6602   12.7252    6.3129 N   0  0  0  0  0  0  0  0  0  0  0  0
   34.2778   13.3358    7.4082 C   0  0  0  0  0  0  0  0  0  0  0  0
   33.9847   13.0962    8.5836 O   0  0  0  0  0  0  0  0  0  0  0  0
   35.3945   14.3056    7.0968 C   0  0  0  0  0  0  0  0  0  0  0  0
   35.6230   14.6307    5.3323 S   0  0  0  0  0  0  0  0  0  0  0  0
   31.4478   12.4491    7.2099 C   0  0  0  0  0  0  0  0  0  0  0  0
   31.7022   16.1188   10.6807 H   0  0  0  0  0  0  0  0  0  0  0  0
   30.5054   16.6738   11.8580 H   0  0  0  0  0  0  0  0  0  0  0  0
   31.3498   15.1376   12.1068 H   0  0  0  0  0  0  0  0  0  0  0  0
   27.8256   14.7233   10.8363 H   0  0  0  0  0  0  0  0  0  0  0  0
   28.6287   15.3715   12.2943 H   0  0  0  0  0  0  0  0  0  0  0  0
   28.8648   13.6965   11.8445 H   0  0  0  0  0  0  0  0  0  0  0  0
   28.2944   13.5360    9.2289 H   0  0  0  0  0  0  0  0  0  0  0  0
   29.2388   14.0177    7.8657 H   0  0  0  0  0  0  0  0  0  0  0  0
   29.9884    9.5734    8.2318 H   0  0  0  0  0  0  0  0  0  0  0  0
   31.8097    8.6221    6.8464 H   0  0  0  0  0  0  0  0  0  0  0  0
   34.3489   12.3811    5.6471 H   0  0  0  0  0  0  0  0  0  0  0  0
   35.1670   15.2460    7.5999 H   0  0  0  0  0  0  0  0  0  0  0  0
   36.3238   13.8954    7.5013 H   0  0  0  0  0  0  0  0  0  0  0  0
   35.5274   15.9745    5.4070 H   0  0  0  0  0  0  0  0  0  0  0  0
   31.4034   13.5256    7.2944 H   0  0  0  0  0  0  0  0  0  0  0  0
  1  2  1  0
  2  3  1  0
  2  4  1  0
  4  5  2  0
  4  6  1  0
  6  7  1  0
  7  8  1  0
  8  9  2  0
  9 10  1  0
 10 11  2  0
 11 12  1  0
 11 13  1  0
 13 14  1  0
 14 15  1  0
 15 16  2  0
 15 17  1  0
 17 18  1  0
 13 19  2  0
 19  8  1  0
  1 20  1  0
  1 21  1  0
  1 22  1  0
  3 23  1  0
  3 24  1  0
  3 25  1  0
  6 26  1  0
  6 27  1  0
  9 28  1  0
 10 29  1  0
 14 30  1  0
 17 31  1  0
 17 32  1  0
 18 33  1  0
 19 34  1  0
M  END
