LIG
     RDKit          3D

 38 39  0  0  0  0  0  0  0  0999 V2000
   32.1891    8.0918    7.4933 C   0  0  0  0  0  0  0  0  0  0  0  0
   32.1203    9.5050    7.1009 C   0  0  0  0  0  0  0  0  0  0  0  0
   31.2100   10.2523    7.8208 C   0  0  0  0  0  0  0  0  0  0  0  0
   31.0920   11.5764    7.5204 C   0  0  0  0  0  0  0  0  0  0  0  0
   30.0620   12.2766    8.1356 N   0  0  0  0  0  0  0  0  0  0  0  0
   29.2116   13.0073    7.3340 C   0  0  0  0  0  0  0  0  0  0  0  0
   29.2950   13.1273    6.1136 O   0  0  0  0  0  0  0  0  0  0  0  0
   28.1100   13.6553    8.0855 C   0  0  0  0  0  0  0  0  0  0  0  0
   28.3848   15.0701    8.1714 C   0  0  0  0  0  0  0  0  0  0  0  0
   28.5787   16.2024    8.2964 N   0  0  0  0  0  0  0  0  0  0  0  0
   31.9147   12.1735    6.5684 C   0  0  0  0  0  0  0  0  0  0  0  0
   32.8424   11.4297    5.8478 C   0  0  0  0  0  0  0  0  0  0  0  0
   33.6455   11.9941    4.8445 N   0  0  0  0  0  0  0  0  0  0  0  0
   33.7334   13.3399    4.5332 C   0  0  0  0  0  0  0  0  0  0  0  0
   33.2084   14.2651    5.1476 O   0  0  0  0  0  0  0  0  0  0  0  0
   34.5733   13.6094    3.2838 C   0  0  0  0  0  0  0  0  0  0  0  0
   33.8331   14.5548    2.3480 C   0  0  0  0  0  0  0  0  0  0  0  0
   34.3797   14.1643    1.0020 C   0  0  0  0  0  0  0  0  0  0  0  0
   34.5416   12.6696    1.1517 C   0  0  0  0  0  0  0  0  0  0  0  0
   34.8581   12.4171    2.5287 O   0  0  0  0  0  0  0  0  0  0  0  0
   32.9304   10.0680    6.1033 C   0  0  0  0  0  0  0  0  0  0  0  0
   33.1052    7.6802    7.1055 H   0  0  0  0  0  0  0  0  0  0  0  0
   31.3171    7.5562    7.1618 H   0  0  0  0  0  0  0  0  0  0  0  0
   32.1942    8.0092    8.5847 H   0  0  0  0  0  0  0  0  0  0  0  0
   30.5732    9.7770    8.5631 H   0  0  0  0  0  0  0  0  0  0  0  0
   29.6818   11.8767    8.9951 H   0  0  0  0  0  0  0  0  0  0  0  0
   27.9976   13.2212    9.0817 H   0  0  0  0  0  0  0  0  0  0  0  0
   27.1918   13.4681    7.5253 H   0  0  0  0  0  0  0  0  0  0  0  0
   31.7783   13.2312    6.3836 H   0  0  0  0  0  0  0  0  0  0  0  0
   34.2431   11.3841    4.2938 H   0  0  0  0  0  0  0  0  0  0  0  0
   35.5329   14.0329    3.6015 H   0  0  0  0  0  0  0  0  0  0  0  0
   34.0022   15.6076    2.5934 H   0  0  0  0  0  0  0  0  0  0  0  0
   32.7509   14.3755    2.3768 H   0  0  0  0  0  0  0  0  0  0  0  0
   35.3596   14.6326    0.8511 H   0  0  0  0  0  0  0  0  0  0  0  0
   33.7341   14.4437    0.1655 H   0  0  0  0  0  0  0  0  0  0  0  0
   35.3315   12.2651    0.5127 H   0  0  0  0  0  0  0  0  0  0  0  0
   33.6069   12.1456    0.9246 H   0  0  0  0  0  0  0  0  0  0  0  0
   33.6382    9.4427    5.5654 H   0  0  0  0  0  0  0  0  0  0  0  0
  1  2  1  0
  2  3  2  0
  3  4  1  0
  4  5  1  0
  5  6  1  0
  6  7  2  0
  6  8  1  0
  8  9  1  0
  9 10  3  0
  4 11  2  0
 11 12  1  0
 12 13  1  0
 13 14  1  0
 14 15  2  0
 14 16  1  0
 16 17  1  0
 17 18  1  0
 18 19  1  0
 19 20  1  0
 12 21  2  0
 21  2  1  0
 20 16  1  0
  1 22  1  0
  1 23  1  0
  1 24  1  0
  3 25  1  0
  5 26  1  0
  8 27  1  0
  8 28  1  0
 11 29  1  0
 13 30  1  0
 16 31  1  0
 17 32  1  0
 17 33  1  0
 18 34  1  0
 18 35  1  0
 19 36  1  0
 19 37  1  0
 21 38  1  0
M  END
