LIG
     RDKit          3D

 34 34  0  0  0  0  0  0  0  0999 V2000
   34.4627   20.0070    6.6532 C   0  0  0  0  0  0  0  0  0  0  0  0
   35.3216   18.8632    6.3881 N   0  0  0  0  0  0  0  0  0  0  0  0
   36.7497   19.1377    6.3358 C   0  0  0  0  0  0  0  0  0  0  0  0
   34.7652   17.5895    6.4343 C   0  0  0  0  0  0  0  0  0  0  0  0
   33.5604   17.4002    6.6274 O   0  0  0  0  0  0  0  0  0  0  0  0
   35.7110   16.3904    6.2448 C   0  0  0  0  0  0  0  0  0  0  0  0
   35.0470   15.1300    6.2680 O   0  0  0  0  0  0  0  0  0  0  0  0
   34.6680   14.7180    7.5670 C   0  0  0  0  0  0  0  0  0  0  0  0
   34.4250   13.2280    7.6390 C   0  0  0  0  0  0  0  0  0  0  0  0
   34.9120   12.5690    8.5560 O   0  0  0  0  0  0  0  0  0  0  0  0
   33.6520   12.7090    6.6590 N   0  0  0  0  0  0  0  0  0  0  0  0
   32.7080   11.6650    6.8730 C   0  0  0  0  0  0  0  0  0  0  0  0
   31.5450   11.9340    7.6020 C   0  0  0  0  0  0  0  0  0  0  0  0
   30.7220   10.8640    7.9390 C   0  0  0  0  0  0  0  0  0  0  0  0
   29.4280   11.6110    9.1450 O   0  0  0  0  0  0  0  0  0  0  0  0
   31.0170    9.5590    7.5720 C   0  0  0  0  0  0  0  0  0  0  0  0
   32.1560    9.3390    6.8090 C   0  0  0  0  0  0  0  0  0  0  0  0
   33.0110   10.3720    6.4380 C   0  0  0  0  0  0  0  0  0  0  0  0
   34.1980   10.0910    5.5530 F   0  0  0  0  0  0  0  0  0  0  0  0
   33.4026   19.7549    6.5655 H   0  0  0  0  0  0  0  0  0  0  0  0
   34.6932   20.8003    5.9359 H   0  0  0  0  0  0  0  0  0  0  0  0
   34.6599   20.3629    7.6688 H   0  0  0  0  0  0  0  0  0  0  0  0
   37.3231   18.2901    5.9594 H   0  0  0  0  0  0  0  0  0  0  0  0
   36.9264   19.9932    5.6771 H   0  0  0  0  0  0  0  0  0  0  0  0
   37.0928   19.3776    7.3465 H   0  0  0  0  0  0  0  0  0  0  0  0
   36.4980   16.4050    7.0067 H   0  0  0  0  0  0  0  0  0  0  0  0
   36.1709   16.4836    5.2558 H   0  0  0  0  0  0  0  0  0  0  0  0
   35.4894   14.9755    8.2490 H   0  0  0  0  0  0  0  0  0  0  0  0
   33.7611   15.2275    7.9243 H   0  0  0  0  0  0  0  0  0  0  0  0
   33.7143   13.0757    5.7359 H   0  0  0  0  0  0  0  0  0  0  0  0
   31.2697   12.9245    7.9064 H   0  0  0  0  0  0  0  0  0  0  0  0
   29.1092   10.7823    9.3790 H   0  0  0  0  0  0  0  0  0  0  0  0
   30.3928    8.7282    7.8628 H   0  0  0  0  0  0  0  0  0  0  0  0
   32.4038    8.3141    6.4801 H   0  0  0  0  0  0  0  0  0  0  0  0
  1  2  1  0
  2  3  1  0
  2  4  1  0
  4  5  2  0
  4  6  1  0
  6  7  1  0
  7  8  1  0
  8  9  1  0
  9 10  2  0
  9 11  1  0
 11 12  1  0
 12 13  4  0
 13 14  4  0
 14 15  1  0
 14 16  4  0
 16 17  4  0
 17 18  4  0
 18 19  1  0
 18 12  4  0
  1 20  1  0
  1 21  1  0
  1 22  1  0
  3 23  1  0
  3 24  1  0
  3 25  1  0
  6 26  1  0
  6 27  1  0
  8 28  1  0
  8 29  1  0
 11 30  1  0
 13 31  1  0
 15 32  1  0
 16 33  1  0
 17 34  1  0
M  END
