LIG
     RDKit          3D

 44 45  0  0  0  0  0  0  0  0999 V2000
   -8.1390   -0.4548   -0.3760 C   0  0  0  0  0  0  0  0  0  0  0  0
   -6.8479    0.1180   -0.0283 N   0  0  0  0  0  0  0  0  0  0  0  0
   -6.8632    1.5075    0.4026 C   0  0  0  0  0  0  0  0  0  0  0  0
   -5.6962   -0.5702   -0.4234 C   0  0  0  0  0  0  0  0  0  0  0  0
   -5.7568   -1.6736   -0.9691 O   0  0  0  0  0  0  0  0  0  0  0  0
   -4.3500    0.1139   -0.1395 C   0  0  0  0  0  0  0  0  0  0  0  0
   -3.2565   -0.6892   -0.5700 O   0  0  0  0  0  0  0  0  0  0  0  0
   -2.0029   -0.2011   -0.3433 C   0  0  0  0  0  0  0  0  0  0  0  0
   -1.6685    1.0367    0.1892 C   0  0  0  0  0  0  0  0  0  0  0  0
   -0.3972    1.4611    0.3867 N   0  0  0  0  0  0  0  0  0  0  0  0
    0.5901    0.5990    0.0388 C   0  0  0  0  0  0  0  0  0  0  0  0
    0.3702   -0.6521   -0.5216 C   0  0  0  0  0  0  0  0  0  0  0  0
    1.3117   -1.5600   -0.9097 O   0  0  0  0  0  0  0  0  0  0  0  0
    2.6496   -1.1045   -1.0541 C   0  0  0  0  0  0  0  0  0  0  0  0
    3.4870   -1.0511    0.2359 C   0  0  0  0  0  0  0  0  0  0  0  0
    3.0453   -1.4566    1.3112 O   0  0  0  0  0  0  0  0  0  0  0  0
    4.7581   -0.5010    0.1326 N   0  0  0  0  0  0  0  0  0  0  0  0
    5.5758   -0.3507    1.3392 C   0  0  0  0  0  0  0  0  0  0  0  0
    6.4964    0.8681    1.2259 C   0  0  0  0  0  0  0  0  0  0  0  0
    7.3662    0.8414    0.0840 O   0  0  0  0  0  0  0  0  0  0  0  0
    6.9062    0.0081   -0.9862 C   0  0  0  0  0  0  0  0  0  0  0  0
    5.3795   -0.0316   -1.1094 C   0  0  0  0  0  0  0  0  0  0  0  0
   -0.9548   -1.0483   -0.7000 C   0  0  0  0  0  0  0  0  0  0  0  0
   -8.0753   -1.5331   -0.5447 H   0  0  0  0  0  0  0  0  0  0  0  0
   -8.4998    0.0272   -1.2895 H   0  0  0  0  0  0  0  0  0  0  0  0
   -8.8451   -0.2720    0.4394 H   0  0  0  0  0  0  0  0  0  0  0  0
   -7.6553    1.6468    1.1442 H   0  0  0  0  0  0  0  0  0  0  0  0
   -5.9161    1.8103    0.8514 H   0  0  0  0  0  0  0  0  0  0  0  0
   -7.0612    2.1383   -0.4690 H   0  0  0  0  0  0  0  0  0  0  0  0
   -4.3399    1.0636   -0.6866 H   0  0  0  0  0  0  0  0  0  0  0  0
   -4.2807    0.2724    0.9430 H   0  0  0  0  0  0  0  0  0  0  0  0
   -2.4156    1.7624    0.4897 H   0  0  0  0  0  0  0  0  0  0  0  0
    1.5843    0.9760    0.2494 H   0  0  0  0  0  0  0  0  0  0  0  0
    3.1392   -1.8315   -1.7122 H   0  0  0  0  0  0  0  0  0  0  0  0
    2.6756   -0.1366   -1.5691 H   0  0  0  0  0  0  0  0  0  0  0  0
    4.9407   -0.2651    2.2267 H   0  0  0  0  0  0  0  0  0  0  0  0
    6.1697   -1.2675    1.4309 H   0  0  0  0  0  0  0  0  0  0  0  0
    7.1248    0.9544    2.1178 H   0  0  0  0  0  0  0  0  0  0  0  0
    5.8987    1.7844    1.1560 H   0  0  0  0  0  0  0  0  0  0  0  0
    7.3028   -1.0002   -0.8191 H   0  0  0  0  0  0  0  0  0  0  0  0
    7.3505    0.3847   -1.9129 H   0  0  0  0  0  0  0  0  0  0  0  0
    5.0846   -0.6735   -1.9437 H   0  0  0  0  0  0  0  0  0  0  0  0
    4.9896    0.9765   -1.2905 H   0  0  0  0  0  0  0  0  0  0  0  0
   -1.1743   -2.0264   -1.1210 H   0  0  0  0  0  0  0  0  0  0  0  0
  1  2  1  0
  2  3  1  0
  2  4  1  0
  4  5  2  0
  4  6  1  0
  6  7  1  0
  7  8  1  0
  8  9  2  0
  9 10  1  0
 10 11  2  0
 11 12  1  0
 12 13  1  0
 13 14  1  0
 14 15  1  0
 15 16  2  0
 15 17  1  0
 17 18  1  0
 18 19  1  0
 19 20  1  0
 20 21  1  0
 21 22  1  0
 12 23  2  0
 23  8  1  0
 22 17  1  0
  1 24  1  0
  1 25  1  0
  1 26  1  0
  3 27  1  0
  3 28  1  0
  3 29  1  0
  6 30  1  0
  6 31  1  0
  9 32  1  0
 11 33  1  0
 14 34  1  0
 14 35  1  0
 18 36  1  0
 18 37  1  0
 19 38  1  0
 19 39  1  0
 21 40  1  0
 21 41  1  0
 22 42  1  0
 22 43  1  0
 23 44  1  0
M  END
