LIG
     RDKit          3D

 37 37  0  0  0  0  0  0  0  0999 V2000
   30.2172    8.8033    8.3733 C   0  0  0  0  0  0  0  0  0  0  0  0
   31.0343    9.8687    7.7129 C   0  0  0  0  0  0  0  0  0  0  0  0
   32.1043    9.5003    6.8807 C   0  0  0  0  0  0  0  0  0  0  0  0
   32.9481   10.4623    6.3269 C   0  0  0  0  0  0  0  0  0  0  0  0
   32.7642   11.7928    6.6792 C   0  0  0  0  0  0  0  0  0  0  0  0
   33.7252   12.7424    6.3373 N   0  0  0  0  0  0  0  0  0  0  0  0
   34.2583   13.5979    7.2931 C   0  0  0  0  0  0  0  0  0  0  0  0
   34.0119   13.5552    8.4987 O   0  0  0  0  0  0  0  0  0  0  0  0
   35.1981   14.6292    6.6752 C   0  0  0  0  0  0  0  0  0  0  0  0
   35.5974   14.2373    5.3587 O   0  0  0  0  0  0  0  0  0  0  0  0
   35.7678   15.3299    4.4522 C   0  0  0  0  0  0  0  0  0  0  0  0
   34.4637   15.8869    3.7981 C   0  0  0  0  0  0  0  0  0  0  0  0
   33.4124   15.2377    3.9115 O   0  0  0  0  0  0  0  0  0  0  0  0
   34.5117   17.1020    3.0823 N   0  0  0  0  0  0  0  0  0  0  0  0
   35.7154   17.9111    2.8999 C   0  0  0  0  0  0  0  0  0  0  0  0
   33.2830   17.7573    2.6588 C   0  0  0  0  0  0  0  0  0  0  0  0
   31.6435   12.1833    7.4041 C   0  0  0  0  0  0  0  0  0  0  0  0
   30.7685   11.2263    7.8820 C   0  0  0  0  0  0  0  0  0  0  0  0
   29.6506   11.7023    8.4919 O   0  0  0  0  0  0  0  0  0  0  0  0
   29.2267    8.7292    7.9264 H   0  0  0  0  0  0  0  0  0  0  0  0
   30.7020    7.8333    8.2753 H   0  0  0  0  0  0  0  0  0  0  0  0
   30.1267    9.0023    9.4450 H   0  0  0  0  0  0  0  0  0  0  0  0
   32.3179    8.4492    6.7016 H   0  0  0  0  0  0  0  0  0  0  0  0
   33.8018   10.1506    5.7330 H   0  0  0  0  0  0  0  0  0  0  0  0
   34.3783   12.5519    5.5825 H   0  0  0  0  0  0  0  0  0  0  0  0
   34.6926   15.5935    6.6729 H   0  0  0  0  0  0  0  0  0  0  0  0
   36.0881   14.6726    7.3026 H   0  0  0  0  0  0  0  0  0  0  0  0
   36.4074   16.0763    4.9219 H   0  0  0  0  0  0  0  0  0  0  0  0
   36.3463   14.9246    3.6128 H   0  0  0  0  0  0  0  0  0  0  0  0
   36.6113   17.4399    3.3041 H   0  0  0  0  0  0  0  0  0  0  0  0
   35.5789   18.9034    3.3377 H   0  0  0  0  0  0  0  0  0  0  0  0
   35.8664   18.0374    1.8226 H   0  0  0  0  0  0  0  0  0  0  0  0
   33.4014   18.0710    1.6166 H   0  0  0  0  0  0  0  0  0  0  0  0
   32.4291   17.0806    2.7060 H   0  0  0  0  0  0  0  0  0  0  0  0
   33.1124   18.6450    3.2713 H   0  0  0  0  0  0  0  0  0  0  0  0
   31.4533   13.2322    7.6103 H   0  0  0  0  0  0  0  0  0  0  0  0
   29.6483   11.4018    9.4246 H   0  0  0  0  0  0  0  0  0  0  0  0
  1  2  1  0
  2  3  2  0
  3  4  1  0
  4  5  2  0
  5  6  1  0
  6  7  1  0
  7  8  2  0
  7  9  1  0
  9 10  1  0
 10 11  1  0
 11 12  1  0
 12 13  2  0
 12 14  1  0
 14 15  1  0
 14 16  1  0
  5 17  1  0
 17 18  2  0
 18 19  1  0
 18  2  1  0
  1 20  1  0
  1 21  1  0
  1 22  1  0
  3 23  1  0
  4 24  1  0
  6 25  1  0
  9 26  1  0
  9 27  1  0
 11 28  1  0
 11 29  1  0
 15 30  1  0
 15 31  1  0
 15 32  1  0
 16 33  1  0
 16 34  1  0
 16 35  1  0
 17 36  1  0
 19 37  1  0
M  END
