LIG
     RDKit          3D

 35 36  0  0  0  0  0  0  0  0999 V2000
   28.4602   15.9842    8.0074 N   0  0  0  0  0  0  0  0  0  0  0  0
   28.6156   14.8756    8.2961 C   0  0  0  0  0  0  0  0  0  0  0  0
   28.8257   13.5215    8.7698 C   0  0  0  0  0  0  0  0  0  0  0  0
   29.4838   12.6905    7.7157 C   0  0  0  0  0  0  0  0  0  0  0  0
   29.3891   12.9311    6.5146 O   0  0  0  0  0  0  0  0  0  0  0  0
   30.1853   11.6248    8.2436 N   0  0  0  0  0  0  0  0  0  0  0  0
   31.1652   10.9540    7.5039 C   0  0  0  0  0  0  0  0  0  0  0  0
   31.9541   11.6596    6.5908 C   0  0  0  0  0  0  0  0  0  0  0  0
   32.9165   11.0249    5.8150 C   0  0  0  0  0  0  0  0  0  0  0  0
   33.6810   11.7168    4.8577 N   0  0  0  0  0  0  0  0  0  0  0  0
   33.7052   13.0907    4.6488 C   0  0  0  0  0  0  0  0  0  0  0  0
   33.1531   13.9466    5.3370 O   0  0  0  0  0  0  0  0  0  0  0  0
   34.5235   13.4874    3.4153 C   0  0  0  0  0  0  0  0  0  0  0  0
   33.7401   14.4580    2.5432 C   0  0  0  0  0  0  0  0  0  0  0  0
   34.3094   14.1890    1.1762 C   0  0  0  0  0  0  0  0  0  0  0  0
   34.5440   12.6969    1.2222 C   0  0  0  0  0  0  0  0  0  0  0  0
   34.8608   12.3622    2.5825 O   0  0  0  0  0  0  0  0  0  0  0  0
   33.0813    9.6494    5.9714 C   0  0  0  0  0  0  0  0  0  0  0  0
   32.3085    8.9488    6.9114 C   0  0  0  0  0  0  0  0  0  0  0  0
   31.3719    9.6015    7.6933 C   0  0  0  0  0  0  0  0  0  0  0  0
   30.6586    8.9231    8.6046 F   0  0  0  0  0  0  0  0  0  0  0  0
   29.4718   13.5758    9.6498 H   0  0  0  0  0  0  0  0  0  0  0  0
   27.8854   13.0506    9.0506 H   0  0  0  0  0  0  0  0  0  0  0  0
   29.7937   11.1484    9.0573 H   0  0  0  0  0  0  0  0  0  0  0  0
   31.7895   12.7250    6.4896 H   0  0  0  0  0  0  0  0  0  0  0  0
   34.2965   11.1845    4.2475 H   0  0  0  0  0  0  0  0  0  0  0  0
   35.4642   13.9321    3.7598 H   0  0  0  0  0  0  0  0  0  0  0  0
   32.6682   14.2235    2.5541 H   0  0  0  0  0  0  0  0  0  0  0  0
   33.8565   15.4983    2.8615 H   0  0  0  0  0  0  0  0  0  0  0  0
   33.6534   14.4946    0.3571 H   0  0  0  0  0  0  0  0  0  0  0  0
   35.2656   14.7138    1.0646 H   0  0  0  0  0  0  0  0  0  0  0  0
   33.6382   12.1454    0.9478 H   0  0  0  0  0  0  0  0  0  0  0  0
   35.3584   12.3778    0.5659 H   0  0  0  0  0  0  0  0  0  0  0  0
   33.8145    9.1011    5.3840 H   0  0  0  0  0  0  0  0  0  0  0  0
   32.4424    7.8882    7.0635 H   0  0  0  0  0  0  0  0  0  0  0  0
  1  2  3  0
  2  3  1  0
  3  4  1  0
  4  5  2  0
  4  6  1  0
  6  7  1  0
  7  8  2  0
  8  9  1  0
  9 10  1  0
 10 11  1  0
 11 12  2  0
 11 13  1  0
 13 14  1  0
 14 15  1  0
 15 16  1  0
 16 17  1  0
  9 18  2  0
 18 19  1  0
 19 20  2  0
 20 21  1  0
 20  7  1  0
 17 13  1  0
  3 22  1  0
  3 23  1  0
  6 24  1  0
  8 25  1  0
 10 26  1  0
 13 27  1  0
 14 28  1  0
 14 29  1  0
 15 30  1  0
 15 31  1  0
 16 32  1  0
 16 33  1  0
 18 34  1  0
 19 35  1  0
M  END
