LIG
     RDKit          3D

 44 45  0  0  0  0  0  0  0  0999 V2000
   30.7999   15.5386   11.2821 C   0  0  0  0  0  0  0  0  0  0  0  0
   29.8414   14.8412   10.4407 N   0  0  0  0  0  0  0  0  0  0  0  0
   28.5133   14.6658   10.9878 C   0  0  0  0  0  0  0  0  0  0  0  0
   30.3412   13.9097    9.5405 C   0  0  0  0  0  0  0  0  0  0  0  0
   31.5569   13.7234    9.4537 O   0  0  0  0  0  0  0  0  0  0  0  0
   29.3406   13.1769    8.6131 C   0  0  0  0  0  0  0  0  0  0  0  0
   29.4246   11.7608    8.5426 O   0  0  0  0  0  0  0  0  0  0  0  0
   30.4892   11.1426    7.9760 C   0  0  0  0  0  0  0  0  0  0  0  0
   30.6697    9.7960    8.2529 C   0  0  0  0  0  0  0  0  0  0  0  0
   31.6796    9.1278    7.5925 C   0  0  0  0  0  0  0  0  0  0  0  0
   32.5207    9.7154    6.7137 N   0  0  0  0  0  0  0  0  0  0  0  0
   32.3384   11.0278    6.4802 C   0  0  0  0  0  0  0  0  0  0  0  0
   33.1976   11.5234    5.5451 O   0  0  0  0  0  0  0  0  0  0  0  0
   32.9594   12.8347    5.0527 C   0  0  0  0  0  0  0  0  0  0  0  0
   33.5411   13.8406    6.0210 C   0  0  0  0  0  0  0  0  0  0  0  0
   33.1392   13.8778    7.1839 O   0  0  0  0  0  0  0  0  0  0  0  0
   34.5622   14.6657    5.6150 N   0  0  0  0  0  0  0  0  0  0  0  0
   35.5512   14.8967    6.6620 C   0  0  0  0  0  0  0  0  0  0  0  0
   36.6160   13.8071    6.4988 C   0  0  0  0  0  0  0  0  0  0  0  0
   37.2897   14.0062    5.2356 O   0  0  0  0  0  0  0  0  0  0  0  0
   36.3572   13.8076    4.1548 C   0  0  0  0  0  0  0  0  0  0  0  0
   35.1482   14.7447    4.2749 C   0  0  0  0  0  0  0  0  0  0  0  0
   31.3261   11.7563    7.0744 C   0  0  0  0  0  0  0  0  0  0  0  0
   30.4115   16.4940   11.6292 H   0  0  0  0  0  0  0  0  0  0  0  0
   30.9999   14.9138   12.1452 H   0  0  0  0  0  0  0  0  0  0  0  0
   31.7361   15.7208   10.7486 H   0  0  0  0  0  0  0  0  0  0  0  0
   28.2697   13.6117   11.1095 H   0  0  0  0  0  0  0  0  0  0  0  0
   28.4600   15.1293   11.9738 H   0  0  0  0  0  0  0  0  0  0  0  0
   27.7951   15.1092   10.2953 H   0  0  0  0  0  0  0  0  0  0  0  0
   29.4158   13.6262    7.6154 H   0  0  0  0  0  0  0  0  0  0  0  0
   28.3132   13.3925    8.9098 H   0  0  0  0  0  0  0  0  0  0  0  0
   30.0221    9.2695    8.9424 H   0  0  0  0  0  0  0  0  0  0  0  0
   31.8351    8.0669    7.7556 H   0  0  0  0  0  0  0  0  0  0  0  0
   33.4468   12.8693    4.0795 H   0  0  0  0  0  0  0  0  0  0  0  0
   31.9042   13.0534    4.8582 H   0  0  0  0  0  0  0  0  0  0  0  0
   35.9814   15.8785    6.4858 H   0  0  0  0  0  0  0  0  0  0  0  0
   35.1241   14.8701    7.6681 H   0  0  0  0  0  0  0  0  0  0  0  0
   36.1713   12.8087    6.4915 H   0  0  0  0  0  0  0  0  0  0  0  0
   37.3598   13.8162    7.2975 H   0  0  0  0  0  0  0  0  0  0  0  0
   36.8880   13.9973    3.2167 H   0  0  0  0  0  0  0  0  0  0  0  0
   36.0435   12.7571    4.1532 H   0  0  0  0  0  0  0  0  0  0  0  0
   34.4026   14.5492    3.5011 H   0  0  0  0  0  0  0  0  0  0  0  0
   35.4951   15.7705    4.1290 H   0  0  0  0  0  0  0  0  0  0  0  0
   31.1634   12.7931    6.8402 H   0  0  0  0  0  0  0  0  0  0  0  0
  1  2  1  0
  2  3  1  0
  2  4  1  0
  4  5  2  0
  4  6  1  0
  6  7  1  0
  7  8  1  0
  8  9  2  0
  9 10  1  0
 10 11  2  0
 11 12  1  0
 12 13  1  0
 13 14  1  0
 14 15  1  0
 15 16  2  0
 15 17  1  0
 17 18  1  0
 18 19  1  0
 19 20  1  0
 20 21  1  0
 21 22  1  0
 12 23  2  0
 23  8  1  0
 22 17  1  0
  1 24  1  0
  1 25  1  0
  1 26  1  0
  3 27  1  0
  3 28  1  0
  3 29  1  0
  6 30  1  0
  6 31  1  0
  9 32  1  0
 10 33  1  0
 14 34  1  0
 14 35  1  0
 18 36  1  0
 18 37  1  0
 19 38  1  0
 19 39  1  0
 21 40  1  0
 21 41  1  0
 22 42  1  0
 22 43  1  0
 23 44  1  0
M  END
