LIG
     RDKit          3D

 27 27  0  0  0  0  0  0  0  0999 V2000
   29.1981   14.5476    8.7439 C   0  0  0  0  0  0  0  0  0  0  0  0
   29.5923   13.3551    7.9191 C   0  0  0  0  0  0  0  0  0  0  0  0
   28.7573   12.7654    7.2364 O   0  0  0  0  0  0  0  0  0  0  0  0
   30.9408   13.0512    7.9703 N   0  0  0  0  0  0  0  0  0  0  0  0
   31.4656   11.8238    7.5119 C   0  0  0  0  0  0  0  0  0  0  0  0
   30.7947   10.6361    7.8152 C   0  0  0  0  0  0  0  0  0  0  0  0
   31.2954    9.4075    7.3912 C   0  0  0  0  0  0  0  0  0  0  0  0
   32.4157    9.3680    6.5698 C   0  0  0  0  0  0  0  0  0  0  0  0
   33.0778   10.5432    6.2517 C   0  0  0  0  0  0  0  0  0  0  0  0
   34.1815   10.4776    5.4910 F   0  0  0  0  0  0  0  0  0  0  0  0
   32.6676   11.7645    6.7895 C   0  0  0  0  0  0  0  0  0  0  0  0
   33.5040   12.8861    6.5905 N   0  0  0  0  0  0  0  0  0  0  0  0
   34.1101   13.4794    7.6904 C   0  0  0  0  0  0  0  0  0  0  0  0
   33.8165   13.2409    8.8612 O   0  0  0  0  0  0  0  0  0  0  0  0
   35.2207   14.4514    7.3032 C   0  0  0  0  0  0  0  0  0  0  0  0
   35.1297   14.8965    5.9572 O   0  0  0  0  0  0  0  0  0  0  0  0
   30.0218   14.8849    9.3792 H   0  0  0  0  0  0  0  0  0  0  0  0
   28.9015   15.3638    8.0800 H   0  0  0  0  0  0  0  0  0  0  0  0
   28.3586   14.2742    9.3893 H   0  0  0  0  0  0  0  0  0  0  0  0
   31.6002   13.8100    8.0760 H   0  0  0  0  0  0  0  0  0  0  0  0
   29.8933   10.6504    8.4215 H   0  0  0  0  0  0  0  0  0  0  0  0
   30.7873    8.4876    7.6777 H   0  0  0  0  0  0  0  0  0  0  0  0
   32.8070    8.4249    6.2096 H   0  0  0  0  0  0  0  0  0  0  0  0
   34.1686   12.8118    5.8195 H   0  0  0  0  0  0  0  0  0  0  0  0
   35.1504   15.3055    7.9728 H   0  0  0  0  0  0  0  0  0  0  0  0
   36.1834   13.9530    7.4432 H   0  0  0  0  0  0  0  0  0  0  0  0
   35.1710   15.8793    5.9561 H   0  0  0  0  0  0  0  0  0  0  0  0
  1  2  1  0
  2  3  2  0
  2  4  1  0
  4  5  1  0
  5  6  2  0
  6  7  1  0
  7  8  2  0
  8  9  1  0
  9 10  1  0
  9 11  2  0
 11 12  1  0
 12 13  1  0
 13 14  2  0
 13 15  1  0
 15 16  1  0
 11  5  1  0
  1 17  1  0
  1 18  1  0
  1 19  1  0
  4 20  1  0
  6 21  1  0
  7 22  1  0
  8 23  1  0
 12 24  1  0
 15 25  1  0
 15 26  1  0
 16 27  1  0
M  END
