LIG
     RDKit          3D

 45 47  0  0  0  0  0  0  0  0999 V2000
   -1.7851   -2.2793   -3.7978 C   0  0  0  0  0  0  0  0  0  0  0  0
   -0.8196   -1.8437   -2.7374 C   0  0  0  0  0  0  0  0  0  0  0  0
    0.2276   -2.6818   -2.3438 C   0  0  0  0  0  0  0  0  0  0  0  0
    1.1122   -2.2858   -1.3374 C   0  0  0  0  0  0  0  0  0  0  0  0
    0.9747   -1.0411   -0.7096 C   0  0  0  0  0  0  0  0  0  0  0  0
    1.9101   -0.7226    0.2960 N   0  0  0  0  0  0  0  0  0  0  0  0
    1.9772    0.4411    1.0568 C   0  0  0  0  0  0  0  0  0  0  0  0
    1.2186    1.4015    0.9747 O   0  0  0  0  0  0  0  0  0  0  0  0
    3.1552    0.4080    2.0583 C   0  0  0  0  0  0  0  0  0  0  0  0
    4.4947    0.4133    1.3233 C   0  0  0  0  0  0  0  0  0  0  0  0
    5.3836    1.2225    2.2348 C   0  0  0  0  0  0  0  0  0  0  0  0
    4.4072    2.2288    2.7977 C   0  0  0  0  0  0  0  0  0  0  0  0
    3.1783    1.5146    2.9720 O   0  0  0  0  0  0  0  0  0  0  0  0
   -0.0624   -0.2000   -1.1065 C   0  0  0  0  0  0  0  0  0  0  0  0
   -0.9700   -0.6152   -2.0866 C   0  0  0  0  0  0  0  0  0  0  0  0
   -1.9927    0.2110   -2.4637 O   0  0  0  0  0  0  0  0  0  0  0  0
   -3.0444    0.2826   -1.5177 C   0  0  0  0  0  0  0  0  0  0  0  0
   -3.1200    1.7081   -0.9584 C   0  0  0  0  0  0  0  0  0  0  0  0
   -3.9300    1.5634    0.3120 C   0  0  0  0  0  0  0  0  0  0  0  0
   -3.5581    0.2653    0.8003 N   0  0  0  0  0  0  0  0  0  0  0  0
   -3.9382   -0.2025    2.1077 C   0  0  0  0  0  0  0  0  0  0  0  0
   -3.1800   -0.5820   -0.2361 C   0  0  0  0  0  0  0  0  0  0  0  0
   -3.0395   -1.7914   -0.1556 O   0  0  0  0  0  0  0  0  0  0  0  0
   -1.4520   -3.2007   -4.2923 H   0  0  0  0  0  0  0  0  0  0  0  0
   -1.8757   -1.5084   -4.5723 H   0  0  0  0  0  0  0  0  0  0  0  0
   -2.7695   -2.4683   -3.3552 H   0  0  0  0  0  0  0  0  0  0  0  0
    0.3574   -3.6538   -2.8141 H   0  0  0  0  0  0  0  0  0  0  0  0
    1.9081   -2.9687   -1.0543 H   0  0  0  0  0  0  0  0  0  0  0  0
    2.5912   -1.4433    0.4995 H   0  0  0  0  0  0  0  0  0  0  0  0
    3.0520   -0.4957    2.6728 H   0  0  0  0  0  0  0  0  0  0  0  0
    4.8795   -0.5944    1.1406 H   0  0  0  0  0  0  0  0  0  0  0  0
    4.4073    0.9132    0.3499 H   0  0  0  0  0  0  0  0  0  0  0  0
    6.2318    1.6861    1.7219 H   0  0  0  0  0  0  0  0  0  0  0  0
    5.7708    0.5848    3.0398 H   0  0  0  0  0  0  0  0  0  0  0  0
    4.2277    3.0525    2.0980 H   0  0  0  0  0  0  0  0  0  0  0  0
    4.7286    2.6424    3.7568 H   0  0  0  0  0  0  0  0  0  0  0  0
   -0.1936    0.7784   -0.6626 H   0  0  0  0  0  0  0  0  0  0  0  0
   -3.9676    0.0871   -2.0784 H   0  0  0  0  0  0  0  0  0  0  0  0
   -2.1184    2.0852   -0.7288 H   0  0  0  0  0  0  0  0  0  0  0  0
   -3.5624    2.4110   -1.6690 H   0  0  0  0  0  0  0  0  0  0  0  0
   -3.6981    2.3385    1.0446 H   0  0  0  0  0  0  0  0  0  0  0  0
   -5.0039    1.5573    0.1047 H   0  0  0  0  0  0  0  0  0  0  0  0
   -3.4575   -1.1602    2.3229 H   0  0  0  0  0  0  0  0  0  0  0  0
   -3.6334    0.5371    2.8526 H   0  0  0  0  0  0  0  0  0  0  0  0
   -5.0216   -0.3349    2.1400 H   0  0  0  0  0  0  0  0  0  0  0  0
  1  2  1  0
  2  3  2  0
  3  4  1  0
  4  5  2  0
  5  6  1  0
  6  7  1  0
  7  8  2  0
  7  9  1  0
  9 10  1  0
 10 11  1  0
 11 12  1  0
 12 13  1  0
  5 14  1  0
 14 15  2  0
 15 16  1  0
 16 17  1  0
 17 18  1  0
 18 19  1  0
 19 20  1  0
 20 21  1  0
 20 22  1  0
 22 23  2  0
 15  2  1  0
 22 17  1  0
 13  9  1  0
  1 24  1  0
  1 25  1  0
  1 26  1  0
  3 27  1  0
  4 28  1  0
  6 29  1  0
  9 30  1  0
 10 31  1  0
 10 32  1  0
 11 33  1  0
 11 34  1  0
 12 35  1  0
 12 36  1  0
 14 37  1  0
 17 38  1  0
 18 39  1  0
 18 40  1  0
 19 41  1  0
 19 42  1  0
 21 43  1  0
 21 44  1  0
 21 45  1  0
M  END
