LIG
     RDKit          3D

 44 45  0  0  0  0  0  0  0  0999 V2000
   30.8296   15.5537   11.2580 C   0  0  0  0  0  0  0  0  0  0  0  0
   29.8564   14.8672   10.4256 N   0  0  0  0  0  0  0  0  0  0  0  0
   28.5472   14.6614   10.9903 C   0  0  0  0  0  0  0  0  0  0  0  0
   30.3677   13.9256    9.5318 C   0  0  0  0  0  0  0  0  0  0  0  0
   31.5807   13.7263    9.4841 O   0  0  0  0  0  0  0  0  0  0  0  0
   29.3760   13.2113    8.5827 C   0  0  0  0  0  0  0  0  0  0  0  0
   29.4122   11.7953    8.5332 O   0  0  0  0  0  0  0  0  0  0  0  0
   30.4704   11.1523    7.9736 C   0  0  0  0  0  0  0  0  0  0  0  0
   30.6468    9.8104    8.2779 C   0  0  0  0  0  0  0  0  0  0  0  0
   31.6579    9.1264    7.6345 C   0  0  0  0  0  0  0  0  0  0  0  0
   32.5085    9.6998    6.7569 N   0  0  0  0  0  0  0  0  0  0  0  0
   32.3321   11.0041    6.4912 C   0  0  0  0  0  0  0  0  0  0  0  0
   33.2155   11.4831    5.5727 O   0  0  0  0  0  0  0  0  0  0  0  0
   32.9992   12.7809    5.0396 C   0  0  0  0  0  0  0  0  0  0  0  0
   33.5226   13.8211    6.0065 C   0  0  0  0  0  0  0  0  0  0  0  0
   33.0585   13.8909    7.1460 O   0  0  0  0  0  0  0  0  0  0  0  0
   34.5490   14.6495    5.6255 N   0  0  0  0  0  0  0  0  0  0  0  0
   35.5183   14.8812    6.6912 C   0  0  0  0  0  0  0  0  0  0  0  0
   36.5993   13.8071    6.5381 C   0  0  0  0  0  0  0  0  0  0  0  0
   37.2930   14.0312    5.2930 O   0  0  0  0  0  0  0  0  0  0  0  0
   36.3893   13.8227    4.1907 C   0  0  0  0  0  0  0  0  0  0  0  0
   35.1597   14.7355    4.2935 C   0  0  0  0  0  0  0  0  0  0  0  0
   31.3083   11.7408    7.0536 C   0  0  0  0  0  0  0  0  0  0  0  0
   31.0463   14.9218   12.1119 H   0  0  0  0  0  0  0  0  0  0  0  0
   31.7553   15.7498   10.7114 H   0  0  0  0  0  0  0  0  0  0  0  0
   30.4413   16.5032   11.6230 H   0  0  0  0  0  0  0  0  0  0  0  0
   27.8089   15.0964   10.3133 H   0  0  0  0  0  0  0  0  0  0  0  0
   28.3163   13.6043   11.1056 H   0  0  0  0  0  0  0  0  0  0  0  0
   28.4948   15.1204   11.9789 H   0  0  0  0  0  0  0  0  0  0  0  0
   28.3486   13.4627    8.8550 H   0  0  0  0  0  0  0  0  0  0  0  0
   29.4822   13.6536    7.5850 H   0  0  0  0  0  0  0  0  0  0  0  0
   30.0011    9.2921    8.9744 H   0  0  0  0  0  0  0  0  0  0  0  0
   31.8117    8.0674    7.8138 H   0  0  0  0  0  0  0  0  0  0  0  0
   31.9530   12.9871    4.7906 H   0  0  0  0  0  0  0  0  0  0  0  0
   33.5342   12.7957    4.0910 H   0  0  0  0  0  0  0  0  0  0  0  0
   35.0717   14.8365    7.6885 H   0  0  0  0  0  0  0  0  0  0  0  0
   35.9384   15.8705    6.5340 H   0  0  0  0  0  0  0  0  0  0  0  0
   36.1669   12.8040    6.5095 H   0  0  0  0  0  0  0  0  0  0  0  0
   37.3245   13.8175    7.3539 H   0  0  0  0  0  0  0  0  0  0  0  0
   36.9356   14.0302    3.2654 H   0  0  0  0  0  0  0  0  0  0  0  0
   36.0961   12.7664    4.1746 H   0  0  0  0  0  0  0  0  0  0  0  0
   35.4891   15.7674    4.1523 H   0  0  0  0  0  0  0  0  0  0  0  0
   34.4296   14.5252    3.5085 H   0  0  0  0  0  0  0  0  0  0  0  0
   31.1441   12.7651    6.7741 H   0  0  0  0  0  0  0  0  0  0  0  0
  1  2  1  0
  2  3  1  0
  2  4  1  0
  4  5  2  0
  4  6  1  0
  6  7  1  0
  7  8  1  0
  8  9  2  0
  9 10  1  0
 10 11  2  0
 11 12  1  0
 12 13  1  0
 13 14  1  0
 14 15  1  0
 15 16  2  0
 15 17  1  0
 17 18  1  0
 18 19  1  0
 19 20  1  0
 20 21  1  0
 21 22  1  0
 12 23  2  0
 23  8  1  0
 22 17  1  0
  1 24  1  0
  1 25  1  0
  1 26  1  0
  3 27  1  0
  3 28  1  0
  3 29  1  0
  6 30  1  0
  6 31  1  0
  9 32  1  0
 10 33  1  0
 14 34  1  0
 14 35  1  0
 18 36  1  0
 18 37  1  0
 19 38  1  0
 19 39  1  0
 21 40  1  0
 21 41  1  0
 22 42  1  0
 22 43  1  0
 23 44  1  0
M  END
