LIG
     RDKit          3D

 40 41  0  0  0  0  0  0  0  0999 V2000
   30.7935    8.3101    8.1251 C   0  0  0  0  0  0  0  0  0  0  0  0
   31.4088    9.5019    7.4802 C   0  0  0  0  0  0  0  0  0  0  0  0
   30.9995   10.7385    7.9081 C   0  0  0  0  0  0  0  0  0  0  0  0
   31.6500   11.8564    7.4215 C   0  0  0  0  0  0  0  0  0  0  0  0
   31.2380   13.1475    7.6517 O   0  0  0  0  0  0  0  0  0  0  0  0
   30.2597   13.2756    8.6589 C   0  0  0  0  0  0  0  0  0  0  0  0
   28.8534   12.9061    8.1635 C   0  0  0  0  0  0  0  0  0  0  0  0
   28.3479   14.1891    7.5897 C   0  0  0  0  0  0  0  0  0  0  0  0
   28.8982   15.1361    8.5048 N   0  0  0  0  0  0  0  0  0  0  0  0
   28.5389   16.4908    8.3910 C   0  0  0  0  0  0  0  0  0  0  0  0
   30.0913   14.7171    9.0642 C   0  0  0  0  0  0  0  0  0  0  0  0
   30.8663   15.3982    9.7192 O   0  0  0  0  0  0  0  0  0  0  0  0
   32.7807   11.6857    6.6204 C   0  0  0  0  0  0  0  0  0  0  0  0
   33.6764   12.7599    6.4526 N   0  0  0  0  0  0  0  0  0  0  0  0
   34.1947   13.3872    7.5881 C   0  0  0  0  0  0  0  0  0  0  0  0
   33.9036   13.0796    8.7492 O   0  0  0  0  0  0  0  0  0  0  0  0
   35.1795   14.5050    7.3137 C   0  0  0  0  0  0  0  0  0  0  0  0
   35.6570   14.6411    5.5680 S   0  0  0  0  0  0  0  0  0  0  0  0
   33.0529   10.4150    6.1193 C   0  0  0  0  0  0  0  0  0  0  0  0
   34.1500   10.1531    5.1340 C   0  0  0  0  0  0  0  0  0  0  0  0
   32.3609    9.3292    6.5371 N   0  0  0  0  0  0  0  0  0  0  0  0
   31.1514    7.4388    7.5935 H   0  0  0  0  0  0  0  0  0  0  0  0
   31.1012    8.2378    9.1713 H   0  0  0  0  0  0  0  0  0  0  0  0
   29.7020    8.3462    8.0812 H   0  0  0  0  0  0  0  0  0  0  0  0
   30.1975   10.7731    8.6317 H   0  0  0  0  0  0  0  0  0  0  0  0
   30.5703   12.7620    9.5529 H   0  0  0  0  0  0  0  0  0  0  0  0
   28.2320   12.6461    9.0240 H   0  0  0  0  0  0  0  0  0  0  0  0
   28.7979   12.1101    7.4185 H   0  0  0  0  0  0  0  0  0  0  0  0
   27.2589   14.2452    7.5790 H   0  0  0  0  0  0  0  0  0  0  0  0
   28.7454   14.3777    6.5863 H   0  0  0  0  0  0  0  0  0  0  0  0
   29.2643   17.1582    8.8222 H   0  0  0  0  0  0  0  0  0  0  0  0
   27.5933   16.5756    8.9196 H   0  0  0  0  0  0  0  0  0  0  0  0
   28.4937   16.7325    7.3348 H   0  0  0  0  0  0  0  0  0  0  0  0
   34.3651   12.7073    5.7075 H   0  0  0  0  0  0  0  0  0  0  0  0
   34.7163   15.4375    7.6289 H   0  0  0  0  0  0  0  0  0  0  0  0
   36.0767   14.3252    7.9114 H   0  0  0  0  0  0  0  0  0  0  0  0
   35.6674   15.9901    5.5220 H   0  0  0  0  0  0  0  0  0  0  0  0
   34.2719    9.0785    4.9627 H   0  0  0  0  0  0  0  0  0  0  0  0
   33.9051   10.6214    4.1755 H   0  0  0  0  0  0  0  0  0  0  0  0
   35.1069   10.5464    5.4842 H   0  0  0  0  0  0  0  0  0  0  0  0
  1  2  1  0
  2  3  2  0
  3  4  1  0
  4  5  1  0
  5  6  1  0
  6  7  1  0
  7  8  1  0
  8  9  1  0
  9 10  1  0
  9 11  1  0
 11 12  2  0
  4 13  2  0
 13 14  1  0
 14 15  1  0
 15 16  2  0
 15 17  1  0
 17 18  1  0
 13 19  1  0
 19 20  1  0
 19 21  2  0
 21  2  1  0
 11  6  1  0
  1 22  1  0
  1 23  1  0
  1 24  1  0
  3 25  1  0
  6 26  1  0
  7 27  1  0
  7 28  1  0
  8 29  1  0
  8 30  1  0
 10 31  1  0
 10 32  1  0
 10 33  1  0
 14 34  1  0
 17 35  1  0
 17 36  1  0
 18 37  1  0
 20 38  1  0
 20 39  1  0
 20 40  1  0
M  END
