LIG
     RDKit          3D

 40 41  0  0  0  0  0  0  0  0999 V2000
   35.1385    8.1650    4.0332 C   0  0  0  0  0  0  0  0  0  0  0  0
   34.4583    9.4323    4.4693 C   0  0  0  0  0  0  0  0  0  0  0  0
   34.6664   10.4733    3.8514 O   0  0  0  0  0  0  0  0  0  0  0  0
   33.6030    9.2591    5.5517 N   0  0  0  0  0  0  0  0  0  0  0  0
   32.9524   10.2989    6.2675 C   0  0  0  0  0  0  0  0  0  0  0  0
   33.3887   11.6100    6.1115 C   0  0  0  0  0  0  0  0  0  0  0  0
   32.8425   12.5964    6.8961 C   0  0  0  0  0  0  0  0  0  0  0  0
   33.3412   13.8603    6.7854 O   0  0  0  0  0  0  0  0  0  0  0  0
   34.2802   14.1175    7.8209 C   0  0  0  0  0  0  0  0  0  0  0  0
   35.7569   13.9457    7.4718 C   0  0  0  0  0  0  0  0  0  0  0  0
   36.5909   13.8597    8.3794 O   0  0  0  0  0  0  0  0  0  0  0  0
   36.1172   13.8768    6.1319 N   0  0  0  0  0  0  0  0  0  0  0  0
   37.4571   13.4075    5.8114 C   0  0  0  0  0  0  0  0  0  0  0  0
   37.5141   12.8890    4.3763 C   0  0  0  0  0  0  0  0  0  0  0  0
   37.0942   13.9017    3.4485 O   0  0  0  0  0  0  0  0  0  0  0  0
   35.7412   14.3045    3.7296 C   0  0  0  0  0  0  0  0  0  0  0  0
   35.6160   14.8440    5.1554 C   0  0  0  0  0  0  0  0  0  0  0  0
   31.8261   12.4184    7.7457 N   0  0  0  0  0  0  0  0  0  0  0  0
   31.3687   11.1560    7.8538 C   0  0  0  0  0  0  0  0  0  0  0  0
   31.9268   10.0527    7.2001 C   0  0  0  0  0  0  0  0  0  0  0  0
   31.4287    8.7135    7.6468 C   0  0  0  0  0  0  0  0  0  0  0  0
   35.9245    8.4053    3.3106 H   0  0  0  0  0  0  0  0  0  0  0  0
   34.4175    7.4996    3.5536 H   0  0  0  0  0  0  0  0  0  0  0  0
   35.6122    7.6754    4.8868 H   0  0  0  0  0  0  0  0  0  0  0  0
   33.4246    8.2972    5.8314 H   0  0  0  0  0  0  0  0  0  0  0  0
   34.2095   11.8863    5.4656 H   0  0  0  0  0  0  0  0  0  0  0  0
   34.0772   13.5120    8.7157 H   0  0  0  0  0  0  0  0  0  0  0  0
   34.1820   15.1591    8.1360 H   0  0  0  0  0  0  0  0  0  0  0  0
   38.1468   14.2500    5.9138 H   0  0  0  0  0  0  0  0  0  0  0  0
   37.7666   12.6370    6.5201 H   0  0  0  0  0  0  0  0  0  0  0  0
   36.8845   12.0017    4.2484 H   0  0  0  0  0  0  0  0  0  0  0  0
   38.5408   12.6095    4.1202 H   0  0  0  0  0  0  0  0  0  0  0  0
   35.0755   13.4488    3.5689 H   0  0  0  0  0  0  0  0  0  0  0  0
   35.4704   15.0824    3.0091 H   0  0  0  0  0  0  0  0  0  0  0  0
   36.2686   15.7165    5.2596 H   0  0  0  0  0  0  0  0  0  0  0  0
   34.5958   15.1584    5.3668 H   0  0  0  0  0  0  0  0  0  0  0  0
   30.5395   11.0356    8.5521 H   0  0  0  0  0  0  0  0  0  0  0  0
   31.7547    8.5024    8.6675 H   0  0  0  0  0  0  0  0  0  0  0  0
   30.3359    8.6885    7.6388 H   0  0  0  0  0  0  0  0  0  0  0  0
   31.8038    7.9122    7.0202 H   0  0  0  0  0  0  0  0  0  0  0  0
  1  2  1  0
  2  3  2  0
  2  4  1  0
  4  5  1  0
  5  6  2  0
  6  7  1  0
  7  8  1  0
  8  9  1  0
  9 10  1  0
 10 11  2  0
 10 12  1  0
 12 13  1  0
 13 14  1  0
 14 15  1  0
 15 16  1  0
 16 17  1  0
  7 18  2  0
 18 19  1  0
 19 20  2  0
 20 21  1  0
 20  5  1  0
 17 12  1  0
  1 22  1  0
  1 23  1  0
  1 24  1  0
  4 25  1  0
  6 26  1  0
  9 27  1  0
  9 28  1  0
 13 29  1  0
 13 30  1  0
 14 31  1  0
 14 32  1  0
 16 33  1  0
 16 34  1  0
 17 35  1  0
 17 36  1  0
 19 37  1  0
 21 38  1  0
 21 39  1  0
 21 40  1  0
M  END
