LIG
     RDKit          3D

 48 49  0  0  0  0  0  0  0  0999 V2000
    1.0498   -2.0760   -2.6363 C   0  0  0  0  0  0  0  0  0  0  0  0
    0.9704   -1.2250   -1.4019 C   0  0  0  0  0  0  0  0  0  0  0  0
    2.1433   -0.8284   -0.7416 C   0  0  0  0  0  0  0  0  0  0  0  0
    2.0760   -0.0126    0.3882 C   0  0  0  0  0  0  0  0  0  0  0  0
    3.1384    0.4364    1.1226 O   0  0  0  0  0  0  0  0  0  0  0  0
    4.4373    0.0380    0.7044 C   0  0  0  0  0  0  0  0  0  0  0  0
    5.5288    0.6068    1.6246 C   0  0  0  0  0  0  0  0  0  0  0  0
    5.2537    1.3033    2.6034 O   0  0  0  0  0  0  0  0  0  0  0  0
    6.8528    0.2878    1.3012 N   0  0  0  0  0  0  0  0  0  0  0  0
    7.9122    0.9052    2.0836 C   0  0  0  0  0  0  0  0  0  0  0  0
    7.2595   -0.3200    0.0441 C   0  0  0  0  0  0  0  0  0  0  0  0
    0.8280    0.4135    0.8483 C   0  0  0  0  0  0  0  0  0  0  0  0
   -0.3492    0.0418    0.1953 C   0  0  0  0  0  0  0  0  0  0  0  0
   -1.4933    0.5404    0.7541 O   0  0  0  0  0  0  0  0  0  0  0  0
   -2.7259    0.1951    0.1376 C   0  0  0  0  0  0  0  0  0  0  0  0
   -3.9199    0.8138    0.8802 C   0  0  0  0  0  0  0  0  0  0  0  0
   -3.7941    1.3929    1.9599 O   0  0  0  0  0  0  0  0  0  0  0  0
   -5.1636    0.6868    0.2693 N   0  0  0  0  0  0  0  0  0  0  0  0
   -6.3336    1.3157    0.8872 C   0  0  0  0  0  0  0  0  0  0  0  0
   -7.3403    1.7603   -0.1781 C   0  0  0  0  0  0  0  0  0  0  0  0
   -7.7909    0.7009   -1.0367 O   0  0  0  0  0  0  0  0  0  0  0  0
   -6.8922   -0.4115   -1.1172 C   0  0  0  0  0  0  0  0  0  0  0  0
   -5.4187   -0.0109   -0.9934 C   0  0  0  0  0  0  0  0  0  0  0  0
   -0.2734   -0.7741   -0.9339 C   0  0  0  0  0  0  0  0  0  0  0  0
    0.1584   -2.7041   -2.7363 H   0  0  0  0  0  0  0  0  0  0  0  0
    1.1369   -1.4407   -3.5230 H   0  0  0  0  0  0  0  0  0  0  0  0
    1.9148   -2.7463   -2.5939 H   0  0  0  0  0  0  0  0  0  0  0  0
    3.0955   -1.1727   -1.1312 H   0  0  0  0  0  0  0  0  0  0  0  0
    4.6245    0.4190   -0.3062 H   0  0  0  0  0  0  0  0  0  0  0  0
    4.5142   -1.0549    0.7434 H   0  0  0  0  0  0  0  0  0  0  0  0
    8.2674    1.7925    1.5512 H   0  0  0  0  0  0  0  0  0  0  0  0
    8.7345    0.1934    2.2015 H   0  0  0  0  0  0  0  0  0  0  0  0
    7.5653    1.2020    3.0769 H   0  0  0  0  0  0  0  0  0  0  0  0
    7.4798    0.4775   -0.6716 H   0  0  0  0  0  0  0  0  0  0  0  0
    8.1559   -0.9254    0.2075 H   0  0  0  0  0  0  0  0  0  0  0  0
    6.4822   -0.9643   -0.3695 H   0  0  0  0  0  0  0  0  0  0  0  0
    0.7725    1.0497    1.7297 H   0  0  0  0  0  0  0  0  0  0  0  0
   -2.7379    0.5736   -0.8910 H   0  0  0  0  0  0  0  0  0  0  0  0
   -2.8571   -0.8929    0.1631 H   0  0  0  0  0  0  0  0  0  0  0  0
   -6.0331    2.1686    1.5039 H   0  0  0  0  0  0  0  0  0  0  0  0
   -6.7841    0.5613    1.5427 H   0  0  0  0  0  0  0  0  0  0  0  0
   -6.8936    2.5290   -0.8194 H   0  0  0  0  0  0  0  0  0  0  0  0
   -8.2240    2.2007    0.2941 H   0  0  0  0  0  0  0  0  0  0  0  0
   -7.0692   -0.9106   -2.0751 H   0  0  0  0  0  0  0  0  0  0  0  0
   -7.1640   -1.1185   -0.3245 H   0  0  0  0  0  0  0  0  0  0  0  0
   -4.7790   -0.8940   -1.0712 H   0  0  0  0  0  0  0  0  0  0  0  0
   -5.1488    0.6860   -1.7950 H   0  0  0  0  0  0  0  0  0  0  0  0
   -1.1660   -1.0770   -1.4709 H   0  0  0  0  0  0  0  0  0  0  0  0
  1  2  1  0
  2  3  2  0
  3  4  1  0
  4  5  1  0
  5  6  1  0
  6  7  1  0
  7  8  2  0
  7  9  1  0
  9 10  1  0
  9 11  1  0
  4 12  2  0
 12 13  1  0
 13 14  1  0
 14 15  1  0
 15 16  1  0
 16 17  2  0
 16 18  1  0
 18 19  1  0
 19 20  1  0
 20 21  1  0
 21 22  1  0
 22 23  1  0
 13 24  2  0
 24  2  1  0
 23 18  1  0
  1 25  1  0
  1 26  1  0
  1 27  1  0
  3 28  1  0
  6 29  1  0
  6 30  1  0
 10 31  1  0
 10 32  1  0
 10 33  1  0
 11 34  1  0
 11 35  1  0
 11 36  1  0
 12 37  1  0
 15 38  1  0
 15 39  1  0
 19 40  1  0
 19 41  1  0
 20 42  1  0
 20 43  1  0
 22 44  1  0
 22 45  1  0
 23 46  1  0
 23 47  1  0
 24 48  1  0
M  END
