LIG
     RDKit          3D

 40 41  0  0  0  0  0  0  0  0999 V2000
   31.1548    8.6816    5.9809 C   0  0  0  0  0  0  0  0  0  0  0  0
   32.0056    9.8963    5.9847 C   0  0  0  0  0  0  0  0  0  0  0  0
   31.5514   11.0765    6.5345 C   0  0  0  0  0  0  0  0  0  0  0  0
   32.3678   12.1960    6.5896 C   0  0  0  0  0  0  0  0  0  0  0  0
   31.8182   13.3050    7.1868 O   0  0  0  0  0  0  0  0  0  0  0  0
   31.9884   14.5608    6.5430 C   0  0  0  0  0  0  0  0  0  0  0  0
   30.8478   14.8740    5.5772 C   0  0  0  0  0  0  0  0  0  0  0  0
   30.5688   16.3608    5.7134 C   0  0  0  0  0  0  0  0  0  0  0  0
   31.3124   16.8183    6.8548 N   0  0  0  0  0  0  0  0  0  0  0  0
   30.9174   18.0265    7.5660 C   0  0  0  0  0  0  0  0  0  0  0  0
   32.0123   15.7769    7.4803 C   0  0  0  0  0  0  0  0  0  0  0  0
   32.5644   15.8406    8.5705 O   0  0  0  0  0  0  0  0  0  0  0  0
   33.6864   12.0453    6.1705 C   0  0  0  0  0  0  0  0  0  0  0  0
   34.6388   13.0498    6.4044 N   0  0  0  0  0  0  0  0  0  0  0  0
   34.8423   13.5454    7.6817 C   0  0  0  0  0  0  0  0  0  0  0  0
   34.4775   12.9522    8.6918 O   0  0  0  0  0  0  0  0  0  0  0  0
   35.6291   14.8386    7.7796 C   0  0  0  0  0  0  0  0  0  0  0  0
   35.9069   15.6589    6.1773 S   0  0  0  0  0  0  0  0  0  0  0  0
   34.0551   10.8384    5.5580 C   0  0  0  0  0  0  0  0  0  0  0  0
   35.4483   10.5773    5.0885 C   0  0  0  0  0  0  0  0  0  0  0  0
   33.2198    9.7819    5.4365 N   0  0  0  0  0  0  0  0  0  0  0  0
   31.7671    7.8201    6.2290 H   0  0  0  0  0  0  0  0  0  0  0  0
   30.3598    8.7875    6.7088 H   0  0  0  0  0  0  0  0  0  0  0  0
   30.7348    8.5252    4.9843 H   0  0  0  0  0  0  0  0  0  0  0  0
   30.5896   11.0840    6.9975 H   0  0  0  0  0  0  0  0  0  0  0  0
   32.9163   14.6256    5.9701 H   0  0  0  0  0  0  0  0  0  0  0  0
   31.1517   14.6416    4.5487 H   0  0  0  0  0  0  0  0  0  0  0  0
   29.9574   14.2758    5.7355 H   0  0  0  0  0  0  0  0  0  0  0  0
   29.5021   16.5611    5.8472 H   0  0  0  0  0  0  0  0  0  0  0  0
   30.9150   16.9197    4.8378 H   0  0  0  0  0  0  0  0  0  0  0  0
   31.4196   18.0947    8.5345 H   0  0  0  0  0  0  0  0  0  0  0  0
   31.2102   18.8822    6.9505 H   0  0  0  0  0  0  0  0  0  0  0  0
   29.8332   18.0610    7.7019 H   0  0  0  0  0  0  0  0  0  0  0  0
   35.4546   13.1011    5.8102 H   0  0  0  0  0  0  0  0  0  0  0  0
   35.0869   15.5291    8.4291 H   0  0  0  0  0  0  0  0  0  0  0  0
   36.6003   14.6191    8.2327 H   0  0  0  0  0  0  0  0  0  0  0  0
   37.0929   15.0883    5.9231 H   0  0  0  0  0  0  0  0  0  0  0  0
   36.1482   10.6130    5.9293 H   0  0  0  0  0  0  0  0  0  0  0  0
   35.5313    9.5876    4.6263 H   0  0  0  0  0  0  0  0  0  0  0  0
   35.7449   11.3170    4.3382 H   0  0  0  0  0  0  0  0  0  0  0  0
  1  2  1  0
  2  3  2  0
  3  4  1  0
  4  5  1  0
  5  6  1  0
  6  7  1  0
  7  8  1  0
  8  9  1  0
  9 10  1  0
  9 11  1  0
 11 12  2  0
  4 13  2  0
 13 14  1  0
 14 15  1  0
 15 16  2  0
 15 17  1  0
 17 18  1  0
 13 19  1  0
 19 20  1  0
 19 21  2  0
 21  2  1  0
 11  6  1  0
  1 22  1  0
  1 23  1  0
  1 24  1  0
  3 25  1  0
  6 26  1  0
  7 27  1  0
  7 28  1  0
  8 29  1  0
  8 30  1  0
 10 31  1  0
 10 32  1  0
 10 33  1  0
 14 34  1  0
 17 35  1  0
 17 36  1  0
 18 37  1  0
 20 38  1  0
 20 39  1  0
 20 40  1  0
M  END
