LIG
     RDKit          3D

 40 40  0  0  0  0  0  0  0  0999 V2000
    5.6809    1.1218   -1.5830 C   0  0  0  0  0  0  0  0  0  0  0  0
    4.3958    0.6833   -0.9468 C   0  0  0  0  0  0  0  0  0  0  0  0
    3.1897    1.3179   -1.2634 C   0  0  0  0  0  0  0  0  0  0  0  0
    1.9721    0.9164   -0.6782 C   0  0  0  0  0  0  0  0  0  0  0  0
    0.7204    1.6495   -1.0819 C   0  0  0  0  0  0  0  0  0  0  0  0
    1.9606   -0.1577    0.2381 C   0  0  0  0  0  0  0  0  0  0  0  0
    0.7308   -0.5615    0.8103 N   0  0  0  0  0  0  0  0  0  0  0  0
    0.5020   -1.5891    1.7118 C   0  0  0  0  0  0  0  0  0  0  0  0
    1.3265   -2.3909    2.1442 O   0  0  0  0  0  0  0  0  0  0  0  0
   -0.9735   -1.7028    2.1086 C   0  0  0  0  0  0  0  0  0  0  0  0
   -1.5336   -0.4389    2.4552 O   0  0  0  0  0  0  0  0  0  0  0  0
   -2.8757   -0.2836    2.0102 C   0  0  0  0  0  0  0  0  0  0  0  0
   -2.9825    0.0055    0.5035 C   0  0  0  0  0  0  0  0  0  0  0  0
   -1.9587    0.0989   -0.1799 O   0  0  0  0  0  0  0  0  0  0  0  0
   -4.2561    0.1430   -0.0372 N   0  0  0  0  0  0  0  0  0  0  0  0
   -4.3874    0.2702   -1.4803 C   0  0  0  0  0  0  0  0  0  0  0  0
   -5.4844   -0.1252    0.6953 C   0  0  0  0  0  0  0  0  0  0  0  0
    3.1716   -0.7864    0.5529 C   0  0  0  0  0  0  0  0  0  0  0  0
    4.3674   -0.3694   -0.0357 C   0  0  0  0  0  0  0  0  0  0  0  0
    5.5413   -0.9999    0.2753 O   0  0  0  0  0  0  0  0  0  0  0  0
    6.0949    0.3138   -2.1937 H   0  0  0  0  0  0  0  0  0  0  0  0
    5.5313    1.9895   -2.2334 H   0  0  0  0  0  0  0  0  0  0  0  0
    6.4082    1.4064   -0.8166 H   0  0  0  0  0  0  0  0  0  0  0  0
    3.1953    2.1395   -1.9776 H   0  0  0  0  0  0  0  0  0  0  0  0
    0.9457    2.5167   -1.7119 H   0  0  0  0  0  0  0  0  0  0  0  0
    0.0668    0.9866   -1.6565 H   0  0  0  0  0  0  0  0  0  0  0  0
    0.1924    2.0270   -0.2005 H   0  0  0  0  0  0  0  0  0  0  0  0
   -0.1062   -0.0535    0.5215 H   0  0  0  0  0  0  0  0  0  0  0  0
   -1.0475   -2.3518    2.9871 H   0  0  0  0  0  0  0  0  0  0  0  0
   -1.5021   -2.1836    1.2771 H   0  0  0  0  0  0  0  0  0  0  0  0
   -3.4571   -1.1731    2.2720 H   0  0  0  0  0  0  0  0  0  0  0  0
   -3.2853    0.5806    2.5424 H   0  0  0  0  0  0  0  0  0  0  0  0
   -3.4494    0.5776   -1.9508 H   0  0  0  0  0  0  0  0  0  0  0  0
   -5.1532    1.0179   -1.7061 H   0  0  0  0  0  0  0  0  0  0  0  0
   -4.6884   -0.6989   -1.8888 H   0  0  0  0  0  0  0  0  0  0  0  0
   -5.7520   -1.1768    0.5519 H   0  0  0  0  0  0  0  0  0  0  0  0
   -6.2841    0.5145    0.3112 H   0  0  0  0  0  0  0  0  0  0  0  0
   -5.3704    0.0718    1.7635 H   0  0  0  0  0  0  0  0  0  0  0  0
    3.2042   -1.6084    1.2571 H   0  0  0  0  0  0  0  0  0  0  0  0
    5.3498   -1.6969    0.9259 H   0  0  0  0  0  0  0  0  0  0  0  0
  1  2  1  0
  2  3  2  0
  3  4  1  0
  4  5  1  0
  4  6  2  0
  6  7  1  0
  7  8  1  0
  8  9  2  0
  8 10  1  0
 10 11  1  0
 11 12  1  0
 12 13  1  0
 13 14  2  0
 13 15  1  0
 15 16  1  0
 15 17  1  0
  6 18  1  0
 18 19  2  0
 19 20  1  0
 19  2  1  0
  1 21  1  0
  1 22  1  0
  1 23  1  0
  3 24  1  0
  5 25  1  0
  5 26  1  0
  5 27  1  0
  7 28  1  0
 10 29  1  0
 10 30  1  0
 12 31  1  0
 12 32  1  0
 16 33  1  0
 16 34  1  0
 16 35  1  0
 17 36  1  0
 17 37  1  0
 17 38  1  0
 18 39  1  0
 20 40  1  0
M  END
