LIG
     RDKit          3D

 34 34  0  0  0  0  0  0  0  0999 V2000
   35.6722   16.6085    1.9830 C   0  0  0  0  0  0  0  0  0  0  0  0
   35.2905   15.8459    3.1572 N   0  0  0  0  0  0  0  0  0  0  0  0
   34.0163   15.1606    3.0946 C   0  0  0  0  0  0  0  0  0  0  0  0
   36.1688   15.8082    4.2381 C   0  0  0  0  0  0  0  0  0  0  0  0
   37.3380   16.1993    4.1499 O   0  0  0  0  0  0  0  0  0  0  0  0
   35.6196   15.3396    5.6022 C   0  0  0  0  0  0  0  0  0  0  0  0
   35.9755   14.0623    6.0735 O   0  0  0  0  0  0  0  0  0  0  0  0
   35.6777   13.9720    7.4680 C   0  0  0  0  0  0  0  0  0  0  0  0
   34.3501   13.2937    7.7450 C   0  0  0  0  0  0  0  0  0  0  0  0
   33.8670   13.2592    8.8772 O   0  0  0  0  0  0  0  0  0  0  0  0
   33.8198   12.6423    6.6314 N   0  0  0  0  0  0  0  0  0  0  0  0
   32.7163   11.7935    6.8234 C   0  0  0  0  0  0  0  0  0  0  0  0
   31.5811   12.2702    7.4701 C   0  0  0  0  0  0  0  0  0  0  0  0
   30.6197   11.3737    7.8958 C   0  0  0  0  0  0  0  0  0  0  0  0
   29.5184   11.9008    8.4914 O   0  0  0  0  0  0  0  0  0  0  0  0
   30.7852   10.0047    7.7173 C   0  0  0  0  0  0  0  0  0  0  0  0
   31.8790    9.5402    6.9805 C   0  0  0  0  0  0  0  0  0  0  0  0
   32.8173   10.4432    6.4946 C   0  0  0  0  0  0  0  0  0  0  0  0
   33.8837    9.9954    5.8144 F   0  0  0  0  0  0  0  0  0  0  0  0
   34.8646   17.3047    1.7367 H   0  0  0  0  0  0  0  0  0  0  0  0
   35.8230   15.9166    1.1492 H   0  0  0  0  0  0  0  0  0  0  0  0
   36.5892   17.1824    2.1393 H   0  0  0  0  0  0  0  0  0  0  0  0
   33.8518   14.4934    3.9412 H   0  0  0  0  0  0  0  0  0  0  0  0
   33.2148   15.9005    3.0356 H   0  0  0  0  0  0  0  0  0  0  0  0
   33.9964   14.5511    2.1853 H   0  0  0  0  0  0  0  0  0  0  0  0
   36.0359   16.0558    6.3099 H   0  0  0  0  0  0  0  0  0  0  0  0
   34.5328   15.4359    5.6476 H   0  0  0  0  0  0  0  0  0  0  0  0
   36.4734   13.3814    7.9285 H   0  0  0  0  0  0  0  0  0  0  0  0
   35.6707   14.9442    7.9711 H   0  0  0  0  0  0  0  0  0  0  0  0
   34.5677   12.2899    6.0332 H   0  0  0  0  0  0  0  0  0  0  0  0
   31.4660   13.3255    7.6972 H   0  0  0  0  0  0  0  0  0  0  0  0
   29.4730   11.5422    9.4055 H   0  0  0  0  0  0  0  0  0  0  0  0
   30.0470    9.2967    8.0880 H   0  0  0  0  0  0  0  0  0  0  0  0
   32.0138    8.4768    6.8118 H   0  0  0  0  0  0  0  0  0  0  0  0
  1  2  1  0
  2  3  1  0
  2  4  1  0
  4  5  2  0
  4  6  1  0
  6  7  1  0
  7  8  1  0
  8  9  1  0
  9 10  2  0
  9 11  1  0
 11 12  1  0
 12 13  2  0
 13 14  1  0
 14 15  1  0
 14 16  2  0
 16 17  1  0
 17 18  2  0
 18 19  1  0
 18 12  1  0
  1 20  1  0
  1 21  1  0
  1 22  1  0
  3 23  1  0
  3 24  1  0
  3 25  1  0
  6 26  1  0
  6 27  1  0
  8 28  1  0
  8 29  1  0
 11 30  1  0
 13 31  1  0
 15 32  1  0
 16 33  1  0
 17 34  1  0
M  END
