LIG
     RDKit          3D

 44 46  0  0  0  0  0  0  0  0999 V2000
   35.5560   11.1040    5.3808 C   0  0  0  0  0  0  0  0  0  0  0  0
   34.3149   11.6951    5.9566 C   0  0  0  0  0  0  0  0  0  0  0  0
   34.3461   12.8515    6.7008 C   0  0  0  0  0  0  0  0  0  0  0  0
   33.2536   13.4057    7.2346 N   0  0  0  0  0  0  0  0  0  0  0  0
   32.1007   12.7530    7.0753 C   0  0  0  0  0  0  0  0  0  0  0  0
   31.0323   13.5510    7.2699 O   0  0  0  0  0  0  0  0  0  0  0  0
   30.0841   12.9877    8.1439 C   0  0  0  0  0  0  0  0  0  0  0  0
   28.8401   12.6742    7.3193 C   0  0  0  0  0  0  0  0  0  0  0  0
   28.1053   13.9853    7.3122 C   0  0  0  0  0  0  0  0  0  0  0  0
   28.3842   14.4766    8.6212 N   0  0  0  0  0  0  0  0  0  0  0  0
   27.7666   15.6511    9.1045 C   0  0  0  0  0  0  0  0  0  0  0  0
   29.6880   14.1683    8.9974 C   0  0  0  0  0  0  0  0  0  0  0  0
   30.4119   14.8067    9.7481 O   0  0  0  0  0  0  0  0  0  0  0  0
   31.9629   11.5458    6.4385 C   0  0  0  0  0  0  0  0  0  0  0  0
   33.0826   11.1118    5.7681 C   0  0  0  0  0  0  0  0  0  0  0  0
   32.9487   10.1744    4.7627 N   0  0  0  0  0  0  0  0  0  0  0  0
   33.5658   10.2935    3.5177 C   0  0  0  0  0  0  0  0  0  0  0  0
   33.8051    9.2313    2.9249 O   0  0  0  0  0  0  0  0  0  0  0  0
   33.8788   11.6774    2.7544 C   0  0  0  0  0  0  0  0  0  0  0  0
   32.7851   12.1439    1.8030 C   0  0  0  0  0  0  0  0  0  0  0  0
   32.2812   13.4181    2.4372 C   0  0  0  0  0  0  0  0  0  0  0  0
   33.5409   13.9782    3.0405 C   0  0  0  0  0  0  0  0  0  0  0  0
   34.3014   12.8458    3.4469 O   0  0  0  0  0  0  0  0  0  0  0  0
   36.4268   11.5583    5.8530 H   0  0  0  0  0  0  0  0  0  0  0  0
   35.7346   11.3188    4.3306 H   0  0  0  0  0  0  0  0  0  0  0  0
   35.5613   10.0197    5.4895 H   0  0  0  0  0  0  0  0  0  0  0  0
   35.2729   13.3882    6.8863 H   0  0  0  0  0  0  0  0  0  0  0  0
   30.4392   12.1462    8.7442 H   0  0  0  0  0  0  0  0  0  0  0  0
   29.0482   12.3391    6.3010 H   0  0  0  0  0  0  0  0  0  0  0  0
   28.2384   11.9177    7.8158 H   0  0  0  0  0  0  0  0  0  0  0  0
   28.5180   14.6782    6.5706 H   0  0  0  0  0  0  0  0  0  0  0  0
   27.0381   13.8548    7.1424 H   0  0  0  0  0  0  0  0  0  0  0  0
   26.7281   15.6742    8.7974 H   0  0  0  0  0  0  0  0  0  0  0  0
   27.8122   15.5575   10.1834 H   0  0  0  0  0  0  0  0  0  0  0  0
   28.3091   16.5146    8.7172 H   0  0  0  0  0  0  0  0  0  0  0  0
   31.0008   11.0855    6.2913 H   0  0  0  0  0  0  0  0  0  0  0  0
   32.8849    9.2133    5.0863 H   0  0  0  0  0  0  0  0  0  0  0  0
   34.7444   11.4006    2.1345 H   0  0  0  0  0  0  0  0  0  0  0  0
   32.0128   11.3972    1.6200 H   0  0  0  0  0  0  0  0  0  0  0  0
   33.2302   12.3853    0.8288 H   0  0  0  0  0  0  0  0  0  0  0  0
   31.5637   13.1874    3.2308 H   0  0  0  0  0  0  0  0  0  0  0  0
   31.8025   14.1009    1.7307 H   0  0  0  0  0  0  0  0  0  0  0  0
   33.3480   14.6266    3.8990 H   0  0  0  0  0  0  0  0  0  0  0  0
   34.1252   14.5369    2.3017 H   0  0  0  0  0  0  0  0  0  0  0  0
  1  2  1  0
  2  3  2  0
  3  4  1  0
  4  5  2  0
  5  6  1  0
  6  7  1  0
  7  8  1  0
  8  9  1  0
  9 10  1  0
 10 11  1  0
 10 12  1  0
 12 13  2  0
  5 14  1  0
 14 15  2  0
 15 16  1  0
 16 17  1  0
 17 18  2  0
 17 19  1  0
 19 20  1  0
 20 21  1  0
 21 22  1  0
 22 23  1  0
 15  2  1  0
 23 19  1  0
 12  7  1  0
  1 24  1  0
  1 25  1  0
  1 26  1  0
  3 27  1  0
  7 28  1  0
  8 29  1  0
  8 30  1  0
  9 31  1  0
  9 32  1  0
 11 33  1  0
 11 34  1  0
 11 35  1  0
 14 36  1  0
 16 37  1  0
 19 38  1  0
 20 39  1  0
 20 40  1  0
 21 41  1  0
 21 42  1  0
 22 43  1  0
 22 44  1  0
M  END
