LIG
     RDKit          3D

 28 28  0  0  0  0  0  0  0  0999 V2000
   -3.1513    2.1655    0.7589 C   0  0  0  0  0  0  0  0  0  0  0  0
   -2.8922    0.6910    0.5717 C   0  0  0  0  0  0  0  0  0  0  0  0
   -3.8072   -0.1216    0.6474 O   0  0  0  0  0  0  0  0  0  0  0  0
   -1.5609    0.4339    0.3153 N   0  0  0  0  0  0  0  0  0  0  0  0
   -0.9109   -0.7976    0.0947 C   0  0  0  0  0  0  0  0  0  0  0  0
   -1.6307   -2.0052    0.1400 C   0  0  0  0  0  0  0  0  0  0  0  0
   -1.0136   -3.2425   -0.0714 C   0  0  0  0  0  0  0  0  0  0  0  0
    0.3454   -3.3051   -0.3355 C   0  0  0  0  0  0  0  0  0  0  0  0
    1.0704   -2.1197   -0.3843 C   0  0  0  0  0  0  0  0  0  0  0  0
    2.4222   -2.1596   -0.6493 O   0  0  0  0  0  0  0  0  0  0  0  0
    0.4754   -0.8524   -0.1736 C   0  0  0  0  0  0  0  0  0  0  0  0
    1.4062    0.2165   -0.2760 N   0  0  0  0  0  0  0  0  0  0  0  0
    1.2968    1.5747   -0.1147 C   0  0  0  0  0  0  0  0  0  0  0  0
    0.2624    2.1817    0.1598 O   0  0  0  0  0  0  0  0  0  0  0  0
    2.5761    2.3519   -0.4039 C   0  0  0  0  0  0  0  0  0  0  0  0
    4.0785    1.4928    0.1473 S   0  0  0  0  0  0  0  0  0  0  0  0
   -2.9110    2.7044   -0.1618 H   0  0  0  0  0  0  0  0  0  0  0  0
   -4.2070    2.3261    0.9957 H   0  0  0  0  0  0  0  0  0  0  0  0
   -2.5458    2.5495    1.5847 H   0  0  0  0  0  0  0  0  0  0  0  0
   -0.9563    1.2531    0.2841 H   0  0  0  0  0  0  0  0  0  0  0  0
   -2.6972   -2.0210    0.3446 H   0  0  0  0  0  0  0  0  0  0  0  0
   -1.6078   -4.1522   -0.0268 H   0  0  0  0  0  0  0  0  0  0  0  0
    0.8140   -4.2696   -0.4994 H   0  0  0  0  0  0  0  0  0  0  0  0
    2.6909   -3.0905   -0.7346 H   0  0  0  0  0  0  0  0  0  0  0  0
    2.3542   -0.1230   -0.4506 H   0  0  0  0  0  0  0  0  0  0  0  0
    2.5254    3.3127    0.1174 H   0  0  0  0  0  0  0  0  0  0  0  0
    2.6362    2.5366   -1.4804 H   0  0  0  0  0  0  0  0  0  0  0  0
    4.9377    2.4694   -0.1805 H   0  0  0  0  0  0  0  0  0  0  0  0
  1  2  1  0
  2  3  2  0
  2  4  1  0
  4  5  1  0
  5  6  2  0
  6  7  1  0
  7  8  2  0
  8  9  1  0
  9 10  1  0
  9 11  2  0
 11 12  1  0
 12 13  1  0
 13 14  2  0
 13 15  1  0
 15 16  1  0
 11  5  1  0
  1 17  1  0
  1 18  1  0
  1 19  1  0
  4 20  1  0
  6 21  1  0
  7 22  1  0
  8 23  1  0
 10 24  1  0
 12 25  1  0
 15 26  1  0
 15 27  1  0
 16 28  1  0
M  END
