LIG
     RDKit          3D

 34 34  0  0  0  0  0  0  0  0999 V2000
   35.2344   13.6334    3.5500 C   0  0  0  0  0  0  0  0  0  0  0  0
   36.2935   13.0289    4.3384 N   0  0  0  0  0  0  0  0  0  0  0  0
   36.7904   11.7471    3.8650 C   0  0  0  0  0  0  0  0  0  0  0  0
   36.9519   13.6461    5.3958 C   0  0  0  0  0  0  0  0  0  0  0  0
   37.8949   13.1201    5.9912 O   0  0  0  0  0  0  0  0  0  0  0  0
   36.4963   15.0609    5.8078 C   0  0  0  0  0  0  0  0  0  0  0  0
   35.2061   15.2158    6.3855 O   0  0  0  0  0  0  0  0  0  0  0  0
   35.1069   14.5543    7.6466 C   0  0  0  0  0  0  0  0  0  0  0  0
   34.7795   13.0683    7.5117 C   0  0  0  0  0  0  0  0  0  0  0  0
   35.2928   12.2196    8.2308 O   0  0  0  0  0  0  0  0  0  0  0  0
   33.7932   12.8342    6.5589 N   0  0  0  0  0  0  0  0  0  0  0  0
   33.2907   11.5382    6.3531 C   0  0  0  0  0  0  0  0  0  0  0  0
   31.9285   11.3615    6.4969 C   0  0  0  0  0  0  0  0  0  0  0  0
   31.4455   10.0677    6.5970 C   0  0  0  0  0  0  0  0  0  0  0  0
   30.2429    9.8867    7.1893 O   0  0  0  0  0  0  0  0  0  0  0  0
   32.2195    8.9598    6.3043 C   0  0  0  0  0  0  0  0  0  0  0  0
   33.5644    9.1371    6.0580 C   0  0  0  0  0  0  0  0  0  0  0  0
   34.0968   10.4177    6.1289 C   0  0  0  0  0  0  0  0  0  0  0  0
   35.4087   10.5434    5.9331 F   0  0  0  0  0  0  0  0  0  0  0  0
   34.4247   12.9082    3.4253 H   0  0  0  0  0  0  0  0  0  0  0  0
   35.6408   13.8929    2.5679 H   0  0  0  0  0  0  0  0  0  0  0  0
   34.8227   14.5328    4.0062 H   0  0  0  0  0  0  0  0  0  0  0  0
   37.4329   11.2562    4.6004 H   0  0  0  0  0  0  0  0  0  0  0  0
   35.9484   11.0913    3.6271 H   0  0  0  0  0  0  0  0  0  0  0  0
   37.3722   11.9223    2.9547 H   0  0  0  0  0  0  0  0  0  0  0  0
   36.5404   15.6963    4.9157 H   0  0  0  0  0  0  0  0  0  0  0  0
   37.2483   15.4761    6.4914 H   0  0  0  0  0  0  0  0  0  0  0  0
   36.0233   14.6825    8.2337 H   0  0  0  0  0  0  0  0  0  0  0  0
   34.2857   15.0196    8.2026 H   0  0  0  0  0  0  0  0  0  0  0  0
   33.1529   13.6129    6.4523 H   0  0  0  0  0  0  0  0  0  0  0  0
   31.2966   12.2031    6.7321 H   0  0  0  0  0  0  0  0  0  0  0  0
   30.1569    8.9303    7.4087 H   0  0  0  0  0  0  0  0  0  0  0  0
   31.7996    7.9652    6.3288 H   0  0  0  0  0  0  0  0  0  0  0  0
   34.2225    8.2935    5.8769 H   0  0  0  0  0  0  0  0  0  0  0  0
  1  2  1  0
  2  3  1  0
  2  4  1  0
  4  5  2  0
  4  6  1  0
  6  7  1  0
  7  8  1  0
  8  9  1  0
  9 10  2  0
  9 11  1  0
 11 12  1  0
 12 13  2  0
 13 14  1  0
 14 15  1  0
 14 16  2  0
 16 17  1  0
 17 18  2  0
 18 19  1  0
 18 12  1  0
  1 20  1  0
  1 21  1  0
  1 22  1  0
  3 23  1  0
  3 24  1  0
  3 25  1  0
  6 26  1  0
  6 27  1  0
  8 28  1  0
  8 29  1  0
 11 30  1  0
 13 31  1  0
 15 32  1  0
 16 33  1  0
 17 34  1  0
M  END
