LIG
     RDKit          3D

 30 30  0  0  0  0  0  0  0  0999 V2000
   29.0987   14.4859    8.6551 C   0  0  0  0  0  0  0  0  0  0  0  0
   29.5843   13.3342    7.8197 C   0  0  0  0  0  0  0  0  0  0  0  0
   28.8433   12.7691    7.0179 O   0  0  0  0  0  0  0  0  0  0  0  0
   30.9271   13.0341    7.9913 N   0  0  0  0  0  0  0  0  0  0  0  0
   31.4729   11.8196    7.5213 C   0  0  0  0  0  0  0  0  0  0  0  0
   30.8150   10.6307    7.8340 C   0  0  0  0  0  0  0  0  0  0  0  0
   31.3177    9.4159    7.3932 C   0  0  0  0  0  0  0  0  0  0  0  0
   32.4187    9.3955    6.5428 C   0  0  0  0  0  0  0  0  0  0  0  0
   33.0899   10.5736    6.1916 C   0  0  0  0  0  0  0  0  0  0  0  0
   34.2384   10.4800    5.2288 C   0  0  0  0  0  0  0  0  0  0  0  0
   32.6634   11.7830    6.7684 C   0  0  0  0  0  0  0  0  0  0  0  0
   33.4447   12.9476    6.5960 N   0  0  0  0  0  0  0  0  0  0  0  0
   34.0964   13.4791    7.7036 C   0  0  0  0  0  0  0  0  0  0  0  0
   33.8789   13.1665    8.8732 O   0  0  0  0  0  0  0  0  0  0  0  0
   35.1533   14.5112    7.3238 C   0  0  0  0  0  0  0  0  0  0  0  0
   35.1439   14.8680    5.9477 O   0  0  0  0  0  0  0  0  0  0  0  0
   29.8772   14.8427    9.3354 H   0  0  0  0  0  0  0  0  0  0  0  0
   28.2437   14.1595    9.2519 H   0  0  0  0  0  0  0  0  0  0  0  0
   28.8003   15.3074    7.9983 H   0  0  0  0  0  0  0  0  0  0  0  0
   31.5630   13.8103    8.0930 H   0  0  0  0  0  0  0  0  0  0  0  0
   29.9215   10.6403    8.4519 H   0  0  0  0  0  0  0  0  0  0  0  0
   30.8196    8.4908    7.6785 H   0  0  0  0  0  0  0  0  0  0  0  0
   32.7725    8.4381    6.1740 H   0  0  0  0  0  0  0  0  0  0  0  0
   35.1046   11.0515    5.5719 H   0  0  0  0  0  0  0  0  0  0  0  0
   34.5699    9.4445    5.0959 H   0  0  0  0  0  0  0  0  0  0  0  0
   33.9281   10.8626    4.2511 H   0  0  0  0  0  0  0  0  0  0  0  0
   34.0501   12.9937    5.7803 H   0  0  0  0  0  0  0  0  0  0  0  0
   34.9543   15.3946    7.9248 H   0  0  0  0  0  0  0  0  0  0  0  0
   36.1371   14.1052    7.5716 H   0  0  0  0  0  0  0  0  0  0  0  0
   35.1413   15.8514    5.8959 H   0  0  0  0  0  0  0  0  0  0  0  0
  1  2  1  0
  2  3  2  0
  2  4  1  0
  4  5  1  0
  5  6  2  0
  6  7  1  0
  7  8  2  0
  8  9  1  0
  9 10  1  0
  9 11  2  0
 11 12  1  0
 12 13  1  0
 13 14  2  0
 13 15  1  0
 15 16  1  0
 11  5  1  0
  1 17  1  0
  1 18  1  0
  1 19  1  0
  4 20  1  0
  6 21  1  0
  7 22  1  0
  8 23  1  0
 10 24  1  0
 10 25  1  0
 10 26  1  0
 12 27  1  0
 15 28  1  0
 15 29  1  0
 16 30  1  0
M  END
