LIG
     RDKit          3D

 48 49  0  0  0  0  0  0  0  0999 V2000
   32.0345    7.9856    7.8059 C   0  0  0  0  0  0  0  0  0  0  0  0
   31.8270    9.3822    7.4586 C   0  0  0  0  0  0  0  0  0  0  0  0
   30.7715    9.9923    8.0893 C   0  0  0  0  0  0  0  0  0  0  0  0
   30.4506   11.2635    7.7236 C   0  0  0  0  0  0  0  0  0  0  0  0
   29.2988   11.6784    8.2690 O   0  0  0  0  0  0  0  0  0  0  0  0
   29.0779   13.0435    8.3205 C   0  0  0  0  0  0  0  0  0  0  0  0
   29.9676   13.8168    9.2854 C   0  0  0  0  0  0  0  0  0  0  0  0
   31.1635   13.6205    9.4737 O   0  0  0  0  0  0  0  0  0  0  0  0
   29.2702   14.7891    9.9814 N   0  0  0  0  0  0  0  0  0  0  0  0
   28.2302   15.5215    9.2717 C   0  0  0  0  0  0  0  0  0  0  0  0
   29.9600   15.3209   11.1471 C   0  0  0  0  0  0  0  0  0  0  0  0
   31.2045   11.9388    6.7815 C   0  0  0  0  0  0  0  0  0  0  0  0
   32.2927   11.3197    6.1737 C   0  0  0  0  0  0  0  0  0  0  0  0
   33.0626   11.8379    5.1792 O   0  0  0  0  0  0  0  0  0  0  0  0
   32.8543   13.1994    4.8471 C   0  0  0  0  0  0  0  0  0  0  0  0
   33.5110   14.0134    5.9324 C   0  0  0  0  0  0  0  0  0  0  0  0
   33.0815   13.9561    7.0883 O   0  0  0  0  0  0  0  0  0  0  0  0
   34.6121   14.7726    5.6227 N   0  0  0  0  0  0  0  0  0  0  0  0
   35.5386   14.9326    6.7326 C   0  0  0  0  0  0  0  0  0  0  0  0
   36.5604   13.7983    6.6207 C   0  0  0  0  0  0  0  0  0  0  0  0
   37.3115   13.9562    5.3973 O   0  0  0  0  0  0  0  0  0  0  0  0
   36.4338   13.8219    4.2621 C   0  0  0  0  0  0  0  0  0  0  0  0
   35.2970   14.8473    4.3243 C   0  0  0  0  0  0  0  0  0  0  0  0
   32.6070   10.0264    6.5116 C   0  0  0  0  0  0  0  0  0  0  0  0
   32.9165    7.6320    7.2912 H   0  0  0  0  0  0  0  0  0  0  0  0
   31.1653    7.4258    7.4866 H   0  0  0  0  0  0  0  0  0  0  0  0
   32.1424    7.8855    8.8871 H   0  0  0  0  0  0  0  0  0  0  0  0
   30.1649    9.4534    8.8120 H   0  0  0  0  0  0  0  0  0  0  0  0
   29.0836   13.5147    7.3310 H   0  0  0  0  0  0  0  0  0  0  0  0
   28.0458   13.0955    8.6785 H   0  0  0  0  0  0  0  0  0  0  0  0
   27.3839   15.6805    9.9287 H   0  0  0  0  0  0  0  0  0  0  0  0
   28.6536   16.4378    8.8531 H   0  0  0  0  0  0  0  0  0  0  0  0
   27.8252   15.0163    8.3945 H   0  0  0  0  0  0  0  0  0  0  0  0
   30.6108   14.5632   11.5858 H   0  0  0  0  0  0  0  0  0  0  0  0
   29.2277   15.5842   11.9117 H   0  0  0  0  0  0  0  0  0  0  0  0
   30.5872   16.1679   10.8577 H   0  0  0  0  0  0  0  0  0  0  0  0
   30.9145   12.9380    6.5007 H   0  0  0  0  0  0  0  0  0  0  0  0
   31.8029   13.4766    4.7206 H   0  0  0  0  0  0  0  0  0  0  0  0
   33.3043   13.3397    3.8674 H   0  0  0  0  0  0  0  0  0  0  0  0
   35.0462   14.9142    7.7086 H   0  0  0  0  0  0  0  0  0  0  0  0
   36.0145   15.8980    6.5952 H   0  0  0  0  0  0  0  0  0  0  0  0
   37.2582   13.7811    7.4609 H   0  0  0  0  0  0  0  0  0  0  0  0
   36.0650   12.8261    6.5849 H   0  0  0  0  0  0  0  0  0  0  0  0
   36.0437   12.7976    4.2372 H   0  0  0  0  0  0  0  0  0  0  0  0
   37.0316   13.9752    3.3584 H   0  0  0  0  0  0  0  0  0  0  0  0
   35.7419   15.8414    4.2391 H   0  0  0  0  0  0  0  0  0  0  0  0
   34.6050   14.7414    3.4881 H   0  0  0  0  0  0  0  0  0  0  0  0
   33.4296    9.5137    6.0209 H   0  0  0  0  0  0  0  0  0  0  0  0
  1  2  1  0
  2  3  2  0
  3  4  1  0
  4  5  1  0
  5  6  1  0
  6  7  1  0
  7  8  2  0
  7  9  1  0
  9 10  1  0
  9 11  1  0
  4 12  2  0
 12 13  1  0
 13 14  1  0
 14 15  1  0
 15 16  1  0
 16 17  2  0
 16 18  1  0
 18 19  1  0
 19 20  1  0
 20 21  1  0
 21 22  1  0
 22 23  1  0
 13 24  2  0
 24  2  1  0
 23 18  1  0
  1 25  1  0
  1 26  1  0
  1 27  1  0
  3 28  1  0
  6 29  1  0
  6 30  1  0
 10 31  1  0
 10 32  1  0
 10 33  1  0
 11 34  1  0
 11 35  1  0
 11 36  1  0
 12 37  1  0
 15 38  1  0
 15 39  1  0
 19 40  1  0
 19 41  1  0
 20 42  1  0
 20 43  1  0
 22 44  1  0
 22 45  1  0
 23 46  1  0
 23 47  1  0
 24 48  1  0
M  END
