LIG
     RDKit          3D

 49 51  0  0  0  0  0  0  0  0999 V2000
   33.9901    9.4695    5.4911 C   0  0  0  0  0  0  0  0  0  0  0  0
   32.8174    9.8088    6.3690 C   0  0  0  0  0  0  0  0  0  0  0  0
   32.2213    8.8172    7.1474 C   0  0  0  0  0  0  0  0  0  0  0  0
   31.1962    9.1022    8.0266 C   0  0  0  0  0  0  0  0  0  0  0  0
   30.7563   10.4073    8.1292 C   0  0  0  0  0  0  0  0  0  0  0  0
   31.2914   11.4263    7.3244 C   0  0  0  0  0  0  0  0  0  0  0  0
   30.8345   12.7200    7.3723 O   0  0  0  0  0  0  0  0  0  0  0  0
   30.0954   13.0624    8.5177 C   0  0  0  0  0  0  0  0  0  0  0  0
   28.6177   12.8143    8.2082 C   0  0  0  0  0  0  0  0  0  0  0  0
   28.1946   14.1054    7.5771 C   0  0  0  0  0  0  0  0  0  0  0  0
   28.8935   15.0401    8.3949 N   0  0  0  0  0  0  0  0  0  0  0  0
   28.5612   16.4079    8.3689 C   0  0  0  0  0  0  0  0  0  0  0  0
   30.0809   14.5354    8.8933 C   0  0  0  0  0  0  0  0  0  0  0  0
   30.9162   15.1621    9.5267 O   0  0  0  0  0  0  0  0  0  0  0  0
   32.2952   11.1058    6.3998 C   0  0  0  0  0  0  0  0  0  0  0  0
   32.8327   11.8943    5.4242 O   0  0  0  0  0  0  0  0  0  0  0  0
   32.5100   13.2620    5.3359 C   0  0  0  0  0  0  0  0  0  0  0  0
   33.4248   13.9513    6.3128 C   0  0  0  0  0  0  0  0  0  0  0  0
   33.2168   13.8625    7.5282 O   0  0  0  0  0  0  0  0  0  0  0  0
   34.5028   14.6546    5.8167 N   0  0  0  0  0  0  0  0  0  0  0  0
   35.5830   14.8601    6.7683 C   0  0  0  0  0  0  0  0  0  0  0  0
   36.6206   13.7653    6.5108 C   0  0  0  0  0  0  0  0  0  0  0  0
   37.1779   13.9431    5.1927 O   0  0  0  0  0  0  0  0  0  0  0  0
   36.1478   13.7512    4.2052 C   0  0  0  0  0  0  0  0  0  0  0  0
   34.9801   14.7200    4.4249 C   0  0  0  0  0  0  0  0  0  0  0  0
   34.4931    8.5619    5.8302 H   0  0  0  0  0  0  0  0  0  0  0  0
   34.7386   10.2685    5.4998 H   0  0  0  0  0  0  0  0  0  0  0  0
   33.6580    9.3118    4.4613 H   0  0  0  0  0  0  0  0  0  0  0  0
   32.5892    7.8044    7.1051 H   0  0  0  0  0  0  0  0  0  0  0  0
   30.7575    8.3137    8.6320 H   0  0  0  0  0  0  0  0  0  0  0  0
   29.9582   10.5785    8.8366 H   0  0  0  0  0  0  0  0  0  0  0  0
   30.4782   12.5645    9.3924 H   0  0  0  0  0  0  0  0  0  0  0  0
   28.0715   12.6910    9.1465 H   0  0  0  0  0  0  0  0  0  0  0  0
   28.4193   11.9747    7.5383 H   0  0  0  0  0  0  0  0  0  0  0  0
   28.5350   14.2028    6.5405 H   0  0  0  0  0  0  0  0  0  0  0  0
   27.1199   14.2668    7.6358 H   0  0  0  0  0  0  0  0  0  0  0  0
   27.6169   16.4910    8.9017 H   0  0  0  0  0  0  0  0  0  0  0  0
   29.3050   17.0153    8.8514 H   0  0  0  0  0  0  0  0  0  0  0  0
   28.5199   16.7189    7.3311 H   0  0  0  0  0  0  0  0  0  0  0  0
   32.6893   13.5569    4.3052 H   0  0  0  0  0  0  0  0  0  0  0  0
   31.4588   13.5130    5.4795 H   0  0  0  0  0  0  0  0  0  0  0  0
   35.9979   15.8415    6.5532 H   0  0  0  0  0  0  0  0  0  0  0  0
   35.2474   14.8365    7.8083 H   0  0  0  0  0  0  0  0  0  0  0  0
   36.1661   12.7738    6.5496 H   0  0  0  0  0  0  0  0  0  0  0  0
   37.4362   13.7748    7.2361 H   0  0  0  0  0  0  0  0  0  0  0  0
   36.5948   13.9172    3.2202 H   0  0  0  0  0  0  0  0  0  0  0  0
   35.8073   12.7096    4.2472 H   0  0  0  0  0  0  0  0  0  0  0  0
   35.3493   15.7329    4.2536 H   0  0  0  0  0  0  0  0  0  0  0  0
   34.1902   14.5499    3.6955 H   0  0  0  0  0  0  0  0  0  0  0  0
  1  2  1  0
  2  3  2  0
  3  4  1  0
  4  5  2  0
  5  6  1  0
  6  7  1  0
  7  8  1  0
  8  9  1  0
  9 10  1  0
 10 11  1  0
 11 12  1  0
 11 13  1  0
 13 14  2  0
  6 15  2  0
 15 16  1  0
 16 17  1  0
 17 18  1  0
 18 19  2  0
 18 20  1  0
 20 21  1  0
 21 22  1  0
 22 23  1  0
 23 24  1  0
 24 25  1  0
 15  2  1  0
 25 20  1  0
 13  8  1  0
  1 26  1  0
  1 27  1  0
  1 28  1  0
  3 29  1  0
  4 30  1  0
  5 31  1  0
  8 32  1  0
  9 33  1  0
  9 34  1  0
 10 35  1  0
 10 36  1  0
 12 37  1  0
 12 38  1  0
 12 39  1  0
 17 40  1  0
 17 41  1  0
 21 42  1  0
 21 43  1  0
 22 44  1  0
 22 45  1  0
 24 46  1  0
 24 47  1  0
 25 48  1  0
 25 49  1  0
M  END
