LIG
     RDKit          3D

 41 42  0  0  0  0  0  0  0  0999 V2000
   34.4770    9.6170    4.1420 C   0  0  0  0  0  0  0  0  0  0  0  0
   34.7220   11.0190    4.6240 C   0  0  0  0  0  0  0  0  0  0  0  0
   35.7630   11.6170    4.3630 O   0  0  0  0  0  0  0  0  0  0  0  0
   33.6960   11.5950    5.3080 N   0  0  0  0  0  0  0  0  0  0  0  0
   32.7998   10.4935    7.2421 C   0  0  0  0  0  0  0  0  0  0  0  0
   33.3470   10.2740    7.4930 C   0  0  0  0  0  0  0  0  0  0  0  0
   32.8900   11.5720    7.6690 C   0  0  0  0  0  0  0  0  0  0  0  0
   33.3940   12.4720    6.7660 O   0  0  0  0  0  0  0  0  0  0  0  0
   32.5070   13.2300    6.0470 C   0  0  0  0  0  0  0  0  0  0  0  0
   32.8430   14.5690    6.5820 C   0  0  0  0  0  0  0  0  0  0  0  0
   32.2450   15.0040    7.5510 O   0  0  0  0  0  0  0  0  0  0  0  0
   33.9260   15.1770    6.0590 N   0  0  0  0  0  0  0  0  0  0  0  0
   34.7260   15.9040    7.0650 C   0  0  0  0  0  0  0  0  0  0  0  0
   36.2000   15.5640    6.9400 C   0  0  0  0  0  0  0  0  0  0  0  0
   36.6530   15.7410    5.6230 O   0  0  0  0  0  0  0  0  0  0  0  0
   35.9790   14.7950    4.8070 C   0  0  0  0  0  0  0  0  0  0  0  0
   34.5050   15.1130    4.7140 C   0  0  0  0  0  0  0  0  0  0  0  0
   31.8380   11.8440    8.5230 C   0  0  0  0  0  0  0  0  0  0  0  0
   31.1650   10.7950    9.1290 C   0  0  0  0  0  0  0  0  0  0  0  0
   31.5630    9.4800    8.9430 C   0  0  0  0  0  0  0  0  0  0  0  0
   30.8480    8.3410    9.6370 C   0  0  0  0  0  0  0  0  0  0  0  0
   33.4914    9.5355    3.6713 H   0  0  0  0  0  0  0  0  0  0  0  0
   34.2930    9.6264    3.0629 H   0  0  0  0  0  0  0  0  0  0  0  0
   35.2316    9.3470    3.3958 H   0  0  0  0  0  0  0  0  0  0  0  0
   33.8254   12.5648    5.5780 H   0  0  0  0  0  0  0  0  0  0  0  0
   34.0324    9.8733    8.2353 H   0  0  0  0  0  0  0  0  0  0  0  0
   32.6379   13.1852    5.0054 H   0  0  0  0  0  0  0  0  0  0  0  0
   31.5345   12.9801    6.3767 H   0  0  0  0  0  0  0  0  0  0  0  0
   34.3570   15.6708    8.0692 H   0  0  0  0  0  0  0  0  0  0  0  0
   34.5580   16.9722    6.8740 H   0  0  0  0  0  0  0  0  0  0  0  0
   36.7944   16.2027    7.5955 H   0  0  0  0  0  0  0  0  0  0  0  0
   36.3761   14.5249    7.2284 H   0  0  0  0  0  0  0  0  0  0  0  0
   36.1378   13.8078    5.2349 H   0  0  0  0  0  0  0  0  0  0  0  0
   36.4406   14.8231    3.8223 H   0  0  0  0  0  0  0  0  0  0  0  0
   34.3423   16.0566    4.1852 H   0  0  0  0  0  0  0  0  0  0  0  0
   33.9648   14.3217    4.1828 H   0  0  0  0  0  0  0  0  0  0  0  0
   31.5238   12.8722    8.7058 H   0  0  0  0  0  0  0  0  0  0  0  0
   30.2952   11.0364    9.7547 H   0  0  0  0  0  0  0  0  0  0  0  0
   30.6309    7.5217    8.9429 H   0  0  0  0  0  0  0  0  0  0  0  0
   29.8954    8.6898   10.0488 H   0  0  0  0  0  0  0  0  0  0  0  0
   31.4747    7.9352   10.4375 H   0  0  0  0  0  0  0  0  0  0  0  0
  1  2  1  0
  2  3  2  0
  2  4  1  0
  4  5  1  0
  5  6  4  0
  6  7  4  0
  7  8  1  0
  8  9  1  0
  9 10  1  0
 10 11  2  0
 10 12  1  0
 12 13  1  0
 13 14  1  0
 14 15  1  0
 15 16  1  0
 16 17  1  0
  7 18  4  0
 18 19  4  0
 19 20  4  0
 20 21  1  0
 20  5  4  0
 17 12  1  0
  1 22  1  0
  1 23  1  0
  1 24  1  0
  4 25  1  0
  6 26  1  0
  9 27  1  0
  9 28  1  0
 13 29  1  0
 13 30  1  0
 14 31  1  0
 14 32  1  0
 16 33  1  0
 16 34  1  0
 17 35  1  0
 17 36  1  0
 18 37  1  0
 19 38  1  0
 21 39  1  0
 21 40  1  0
 21 41  1  0
M  END
