LIG
     RDKit          3D

 40 40  0  0  0  0  0  0  0  0999 V2000
   33.7977   10.1114    5.0818 C   0  0  0  0  0  0  0  0  0  0  0  0
   32.7672   10.5799    6.0563 C   0  0  0  0  0  0  0  0  0  0  0  0
   31.9669    9.6621    6.7378 C   0  0  0  0  0  0  0  0  0  0  0  0
   30.9718   10.0812    7.6403 C   0  0  0  0  0  0  0  0  0  0  0  0
   30.2599    9.0308    8.4435 C   0  0  0  0  0  0  0  0  0  0  0  0
   30.6728   11.4470    7.7428 C   0  0  0  0  0  0  0  0  0  0  0  0
   29.6000   11.8223    8.4900 O   0  0  0  0  0  0  0  0  0  0  0  0
   29.3449   13.2033    8.7166 C   0  0  0  0  0  0  0  0  0  0  0  0
   30.3195   14.0104    9.6232 C   0  0  0  0  0  0  0  0  0  0  0  0
   31.5419   13.9327    9.5119 O   0  0  0  0  0  0  0  0  0  0  0  0
   29.7980   14.9192   10.5387 N   0  0  0  0  0  0  0  0  0  0  0  0
   30.7788   15.6323   11.3428 C   0  0  0  0  0  0  0  0  0  0  0  0
   28.5327   14.6441   11.1581 C   0  0  0  0  0  0  0  0  0  0  0  0
   31.5130   12.3492    7.1180 C   0  0  0  0  0  0  0  0  0  0  0  0
   32.6278   11.9138    6.4122 C   0  0  0  0  0  0  0  0  0  0  0  0
   33.6672   12.8401    6.2310 N   0  0  0  0  0  0  0  0  0  0  0  0
   34.2662   13.3861    7.3744 C   0  0  0  0  0  0  0  0  0  0  0  0
   33.9917   13.0645    8.5340 O   0  0  0  0  0  0  0  0  0  0  0  0
   35.3072   14.4510    7.1196 C   0  0  0  0  0  0  0  0  0  0  0  0
   35.7560   14.6425    5.3758 S   0  0  0  0  0  0  0  0  0  0  0  0
   33.6983   10.6553    4.1366 H   0  0  0  0  0  0  0  0  0  0  0  0
   33.6870    9.0458    4.8582 H   0  0  0  0  0  0  0  0  0  0  0  0
   34.8052   10.2663    5.4766 H   0  0  0  0  0  0  0  0  0  0  0  0
   32.1524    8.5964    6.6129 H   0  0  0  0  0  0  0  0  0  0  0  0
   29.3152    8.7525    7.9761 H   0  0  0  0  0  0  0  0  0  0  0  0
   30.0880    9.3746    9.4652 H   0  0  0  0  0  0  0  0  0  0  0  0
   30.8746    8.1303    8.5291 H   0  0  0  0  0  0  0  0  0  0  0  0
   28.3357   13.2428    9.1305 H   0  0  0  0  0  0  0  0  0  0  0  0
   29.2607   13.7369    7.7604 H   0  0  0  0  0  0  0  0  0  0  0  0
   31.6332   15.9511   10.7404 H   0  0  0  0  0  0  0  0  0  0  0  0
   31.1271   14.9642   12.1212 H   0  0  0  0  0  0  0  0  0  0  0  0
   30.3444   16.5140   11.8121 H   0  0  0  0  0  0  0  0  0  0  0  0
   28.4141   13.5870   11.3762 H   0  0  0  0  0  0  0  0  0  0  0  0
   28.4620   15.1807   12.1045 H   0  0  0  0  0  0  0  0  0  0  0  0
   27.7393   14.9463   10.4718 H   0  0  0  0  0  0  0  0  0  0  0  0
   31.4005   13.4173    7.2385 H   0  0  0  0  0  0  0  0  0  0  0  0
   34.3631   12.6506    5.5161 H   0  0  0  0  0  0  0  0  0  0  0  0
   34.9077   15.3958    7.4865 H   0  0  0  0  0  0  0  0  0  0  0  0
   36.2042   14.1898    7.6870 H   0  0  0  0  0  0  0  0  0  0  0  0
   35.6715   15.9893    5.3497 H   0  0  0  0  0  0  0  0  0  0  0  0
  1  2  1  0
  2  3  2  0
  3  4  1  0
  4  5  1  0
  4  6  2  0
  6  7  1  0
  7  8  1  0
  8  9  1  0
  9 10  2  0
  9 11  1  0
 11 12  1  0
 11 13  1  0
  6 14  1  0
 14 15  2  0
 15 16  1  0
 16 17  1  0
 17 18  2  0
 17 19  1  0
 19 20  1  0
 15  2  1  0
  1 21  1  0
  1 22  1  0
  1 23  1  0
  3 24  1  0
  5 25  1  0
  5 26  1  0
  5 27  1  0
  8 28  1  0
  8 29  1  0
 12 30  1  0
 12 31  1  0
 12 32  1  0
 13 33  1  0
 13 34  1  0
 13 35  1  0
 14 36  1  0
 16 37  1  0
 19 38  1  0
 19 39  1  0
 20 40  1  0
M  END
