LIG
     RDKit          3D

 37 38  0  0  0  0  0  0  0  0999 V2000
   34.4770    9.6170    4.1420 C   0  0  0  0  0  0  0  0  0  0  0  0
   34.7220   11.0190    4.6240 C   0  0  0  0  0  0  0  0  0  0  0  0
   35.7630   11.6170    4.3630 O   0  0  0  0  0  0  0  0  0  0  0  0
   33.6960   11.5950    5.3080 N   0  0  0  0  0  0  0  0  0  0  0  0
   33.0190   11.0096    6.9568 C   0  0  0  0  0  0  0  0  0  0  0  0
   31.5630    9.4800    8.9430 C   0  0  0  0  0  0  0  0  0  0  0  0
   32.6580    9.2460    8.1260 C   0  0  0  0  0  0  0  0  0  0  0  0
   33.3470   10.2740    7.4930 N   0  0  0  0  0  0  0  0  0  0  0  0
   32.8900   11.5720    7.6690 C   0  0  0  0  0  0  0  0  0  0  0  0
   33.3940   12.4720    6.7660 O   0  0  0  0  0  0  0  0  0  0  0  0
   32.5070   13.2300    6.0470 C   0  0  0  0  0  0  0  0  0  0  0  0
   32.8430   14.5690    6.5820 C   0  0  0  0  0  0  0  0  0  0  0  0
   32.2450   15.0040    7.5510 O   0  0  0  0  0  0  0  0  0  0  0  0
   33.9260   15.1770    6.0590 N   0  0  0  0  0  0  0  0  0  0  0  0
   34.7260   15.9040    7.0650 C   0  0  0  0  0  0  0  0  0  0  0  0
   36.2000   15.5640    6.9400 C   0  0  0  0  0  0  0  0  0  0  0  0
   36.6530   15.7410    5.6230 O   0  0  0  0  0  0  0  0  0  0  0  0
   35.9790   14.7950    4.8070 C   0  0  0  0  0  0  0  0  0  0  0  0
   34.5050   15.1130    4.7140 C   0  0  0  0  0  0  0  0  0  0  0  0
   31.8380   11.8440    8.5230 C   0  0  0  0  0  0  0  0  0  0  0  0
   33.4151    9.4512    3.9331 H   0  0  0  0  0  0  0  0  0  0  0  0
   34.8157    8.9059    4.9013 H   0  0  0  0  0  0  0  0  0  0  0  0
   33.8022    9.1046    4.8353 H   0  0  0  0  0  0  0  0  0  0  0  0
   33.4654   12.5597    5.0789 H   0  0  0  0  0  0  0  0  0  0  0  0
   30.8014    8.7141    9.0219 H   0  0  0  0  0  0  0  0  0  0  0  0
   33.0335    8.2639    7.9360 H   0  0  0  0  0  0  0  0  0  0  0  0
   31.5323   12.9968    6.3879 H   0  0  0  0  0  0  0  0  0  0  0  0
   32.6147   13.1313    5.0129 H   0  0  0  0  0  0  0  0  0  0  0  0
   34.5574   16.9703    6.8770 H   0  0  0  0  0  0  0  0  0  0  0  0
   34.3564   15.6602    8.0647 H   0  0  0  0  0  0  0  0  0  0  0  0
   36.3764   14.5263    7.2286 H   0  0  0  0  0  0  0  0  0  0  0  0
   36.7919   16.2020    7.5956 H   0  0  0  0  0  0  0  0  0  0  0  0
   36.4391   14.8202    3.8212 H   0  0  0  0  0  0  0  0  0  0  0  0
   36.1349   13.8097    5.2372 H   0  0  0  0  0  0  0  0  0  0  0  0
   34.3424   16.0536    4.1827 H   0  0  0  0  0  0  0  0  0  0  0  0
   33.9686   14.3183    4.1860 H   0  0  0  0  0  0  0  0  0  0  0  0
   31.3091   11.0220    8.9921 H   0  0  0  0  0  0  0  0  0  0  0  0
  1  2  1  0
  2  3  2  0
  2  4  1  0
  4  5  1  0
  5  6  4  0
  6  7  4  0
  7  8  4  0
  8  9  4  0
  9 10  1  0
 10 11  1  0
 11 12  1  0
 12 13  2  0
 12 14  1  0
 14 15  1  0
 15 16  1  0
 16 17  1  0
 17 18  1  0
 18 19  1  0
  9 20  4  0
 20  5  4  0
 19 14  1  0
  1 21  1  0
  1 22  1  0
  1 23  1  0
  4 24  1  0
  6 25  1  0
  7 26  1  0
 11 27  1  0
 11 28  1  0
 15 29  1  0
 15 30  1  0
 16 31  1  0
 16 32  1  0
 18 33  1  0
 18 34  1  0
 19 35  1  0
 19 36  1  0
 20 37  1  0
M  END
