LIG
     RDKit          3D

 49 51  0  0  0  0  0  0  0  0999 V2000
   34.0235    9.4347    5.6714 C   0  0  0  0  0  0  0  0  0  0  0  0
   32.8914    9.8653    6.5550 C   0  0  0  0  0  0  0  0  0  0  0  0
   32.0583    8.9163    7.1452 C   0  0  0  0  0  0  0  0  0  0  0  0
   30.9632    9.2924    7.9088 C   0  0  0  0  0  0  0  0  0  0  0  0
   30.6508   10.6395    8.0358 C   0  0  0  0  0  0  0  0  0  0  0  0
   31.4774   11.6201    7.4859 C   0  0  0  0  0  0  0  0  0  0  0  0
   31.2584   12.9772    7.5225 O   0  0  0  0  0  0  0  0  0  0  0  0
   30.3374   13.3966    8.4764 C   0  0  0  0  0  0  0  0  0  0  0  0
   28.9640   13.7239    7.9212 C   0  0  0  0  0  0  0  0  0  0  0  0
   28.3082   14.3091    9.1516 C   0  0  0  0  0  0  0  0  0  0  0  0
   29.3607   15.0161    9.8456 N   0  0  0  0  0  0  0  0  0  0  0  0
   29.3715   15.0359   11.2872 C   0  0  0  0  0  0  0  0  0  0  0  0
   30.6072   14.6291    9.3131 C   0  0  0  0  0  0  0  0  0  0  0  0
   31.6788   15.1223    9.6211 O   0  0  0  0  0  0  0  0  0  0  0  0
   32.6114   11.2090    6.7887 C   0  0  0  0  0  0  0  0  0  0  0  0
   33.5241   12.1458    6.4157 O   0  0  0  0  0  0  0  0  0  0  0  0
   33.2731   12.5585    5.0924 C   0  0  0  0  0  0  0  0  0  0  0  0
   33.1060   14.0478    5.1023 C   0  0  0  0  0  0  0  0  0  0  0  0
   32.0126   14.5654    4.8767 O   0  0  0  0  0  0  0  0  0  0  0  0
   34.2662   14.7769    5.2548 N   0  0  0  0  0  0  0  0  0  0  0  0
   34.9963   14.7324    6.5265 C   0  0  0  0  0  0  0  0  0  0  0  0
   36.2414   13.8571    6.4287 C   0  0  0  0  0  0  0  0  0  0  0  0
   37.0910   14.3309    5.3701 O   0  0  0  0  0  0  0  0  0  0  0  0
   36.4147   14.2033    4.1117 C   0  0  0  0  0  0  0  0  0  0  0  0
   35.1005   14.9934    4.0724 C   0  0  0  0  0  0  0  0  0  0  0  0
   34.4684    8.5047    6.0266 H   0  0  0  0  0  0  0  0  0  0  0  0
   33.6520    9.2703    4.6555 H   0  0  0  0  0  0  0  0  0  0  0  0
   34.8236   10.1773    5.6171 H   0  0  0  0  0  0  0  0  0  0  0  0
   32.2658    7.8615    7.0319 H   0  0  0  0  0  0  0  0  0  0  0  0
   30.3242    8.5291    8.3488 H   0  0  0  0  0  0  0  0  0  0  0  0
   29.7360   10.8737    8.5595 H   0  0  0  0  0  0  0  0  0  0  0  0
   30.2573   12.6558    9.2634 H   0  0  0  0  0  0  0  0  0  0  0  0
   29.0364   14.4624    7.1136 H   0  0  0  0  0  0  0  0  0  0  0  0
   28.4319   12.8531    7.5282 H   0  0  0  0  0  0  0  0  0  0  0  0
   27.4936   14.9988    8.9197 H   0  0  0  0  0  0  0  0  0  0  0  0
   27.9469   13.5068    9.8002 H   0  0  0  0  0  0  0  0  0  0  0  0
   29.7564   14.0857   11.6638 H   0  0  0  0  0  0  0  0  0  0  0  0
   28.3673   15.1601   11.6792 H   0  0  0  0  0  0  0  0  0  0  0  0
   30.0461   15.8173   11.6479 H   0  0  0  0  0  0  0  0  0  0  0  0
   32.3884   12.1142    4.6314 H   0  0  0  0  0  0  0  0  0  0  0  0
   34.1253   12.2854    4.4628 H   0  0  0  0  0  0  0  0  0  0  0  0
   34.3392   14.3882    7.3309 H   0  0  0  0  0  0  0  0  0  0  0  0
   35.3002   15.7536    6.7489 H   0  0  0  0  0  0  0  0  0  0  0  0
   36.8025   13.8782    7.3665 H   0  0  0  0  0  0  0  0  0  0  0  0
   35.9947   12.8118    6.2242 H   0  0  0  0  0  0  0  0  0  0  0  0
   37.0893   14.5669    3.3298 H   0  0  0  0  0  0  0  0  0  0  0  0
   36.2388   13.1394    3.9159 H   0  0  0  0  0  0  0  0  0  0  0  0
   34.5358   14.7392    3.1679 H   0  0  0  0  0  0  0  0  0  0  0  0
   35.3410   16.0514    4.0080 H   0  0  0  0  0  0  0  0  0  0  0  0
  1  2  1  0
  2  3  2  0
  3  4  1  0
  4  5  2  0
  5  6  1  0
  6  7  1  0
  7  8  1  0
  8  9  1  0
  9 10  1  0
 10 11  1  0
 11 12  1  0
 11 13  1  0
 13 14  2  0
  6 15  2  0
 15 16  1  0
 16 17  1  0
 17 18  1  0
 18 19  2  0
 18 20  1  0
 20 21  1  0
 21 22  1  0
 22 23  1  0
 23 24  1  0
 24 25  1  0
 15  2  1  0
 25 20  1  0
 13  8  1  0
  1 26  1  0
  1 27  1  0
  1 28  1  0
  3 29  1  0
  4 30  1  0
  5 31  1  0
  8 32  1  0
  9 33  1  0
  9 34  1  0
 10 35  1  0
 10 36  1  0
 12 37  1  0
 12 38  1  0
 12 39  1  0
 17 40  1  0
 17 41  1  0
 21 42  1  0
 21 43  1  0
 22 44  1  0
 22 45  1  0
 24 46  1  0
 24 47  1  0
 25 48  1  0
 25 49  1  0
M  END
