LIG
     RDKit          3D

 36 36  0  0  0  0  0  0  0  0999 V2000
   34.9208   10.6262    4.8479 C   0  0  0  0  0  0  0  0  0  0  0  0
   33.6386   10.9820    5.5152 C   0  0  0  0  0  0  0  0  0  0  0  0
   32.6085   10.0985    5.4810 C   0  0  0  0  0  0  0  0  0  0  0  0
   31.3919   10.3652    5.9761 N   0  0  0  0  0  0  0  0  0  0  0  0
   31.2442   11.4717    6.7104 C   0  0  0  0  0  0  0  0  0  0  0  0
   30.1520   11.5534    7.4926 O   0  0  0  0  0  0  0  0  0  0  0  0
   29.9968   10.3295    8.1507 C   0  0  0  0  0  0  0  0  0  0  0  0
   30.9743    9.1511    8.1835 C   0  0  0  0  0  0  0  0  0  0  0  0
   32.1841    9.2431    8.0113 O   0  0  0  0  0  0  0  0  0  0  0  0
   30.4970    7.9879    8.7020 N   0  0  0  0  0  0  0  0  0  0  0  0
   29.1213    7.7074    8.6234 C   0  0  0  0  0  0  0  0  0  0  0  0
   31.1902    7.8255    9.9152 C   0  0  0  0  0  0  0  0  0  0  0  0
   32.1763   12.4288    6.8386 C   0  0  0  0  0  0  0  0  0  0  0  0
   33.3774   12.1491    6.2245 C   0  0  0  0  0  0  0  0  0  0  0  0
   34.3840   13.0558    6.3750 N   0  0  0  0  0  0  0  0  0  0  0  0
   34.6825   13.6562    7.5741 C   0  0  0  0  0  0  0  0  0  0  0  0
   34.1217   13.4766    8.6516 O   0  0  0  0  0  0  0  0  0  0  0  0
   35.8930   14.5093    7.4219 C   0  0  0  0  0  0  0  0  0  0  0  0
   36.2403   14.9096    5.6477 S   0  0  0  0  0  0  0  0  0  0  0  0
   35.0634    9.5405    4.8085 H   0  0  0  0  0  0  0  0  0  0  0  0
   34.9222   11.0096    3.8224 H   0  0  0  0  0  0  0  0  0  0  0  0
   35.7882   11.0377    5.3680 H   0  0  0  0  0  0  0  0  0  0  0  0
   32.7507    9.1027    5.0864 H   0  0  0  0  0  0  0  0  0  0  0  0
   29.0355    9.9787    7.8221 H   0  0  0  0  0  0  0  0  0  0  0  0
   29.9035   10.5873    9.1983 H   0  0  0  0  0  0  0  0  0  0  0  0
   28.6751    8.0346    7.6953 H   0  0  0  0  0  0  0  0  0  0  0  0
   28.9732    6.6529    8.7284 H   0  0  0  0  0  0  0  0  0  0  0  0
   28.6752    8.2626    9.4234 H   0  0  0  0  0  0  0  0  0  0  0  0
   31.1670    6.9512   10.5063 H   0  0  0  0  0  0  0  0  0  0  0  0
   30.8765    8.6350   10.5666 H   0  0  0  0  0  0  0  0  0  0  0  0
   32.2316    7.7740    9.6084 H   0  0  0  0  0  0  0  0  0  0  0  0
   31.9925   13.3043    7.4443 H   0  0  0  0  0  0  0  0  0  0  0  0
   35.1729   13.0113    5.7390 H   0  0  0  0  0  0  0  0  0  0  0  0
   35.7383   15.4144    7.9907 H   0  0  0  0  0  0  0  0  0  0  0  0
   36.7391   13.9451    7.8260 H   0  0  0  0  0  0  0  0  0  0  0  0
   35.4758   16.0193    5.5926 H   0  0  0  0  0  0  0  0  0  0  0  0
  1  2  1  0
  2  3  2  0
  3  4  1  0
  4  5  2  0
  5  6  1  0
  6  7  1  0
  7  8  1  0
  8  9  2  0
  8 10  1  0
 10 11  1  0
 10 12  1  0
  5 13  1  0
 13 14  2  0
 14 15  1  0
 15 16  1  0
 16 17  2  0
 16 18  1  0
 18 19  1  0
 14  2  1  0
  1 20  1  0
  1 21  1  0
  1 22  1  0
  3 23  1  0
  7 24  1  0
  7 25  1  0
 11 26  1  0
 11 27  1  0
 11 28  1  0
 12 29  1  0
 12 30  1  0
 12 31  1  0
 13 32  1  0
 15 33  1  0
 18 34  1  0
 18 35  1  0
 19 36  1  0
M  END
