LIG
     RDKit          3D

 30 30  0  0  0  0  0  0  0  0999 V2000
   28.5340   14.0390    8.5970 C   0  0  0  0  0  0  0  0  0  0  0  0
   29.3000   13.3530    7.8990 C   0  0  0  0  0  0  0  0  0  0  0  0
   29.3990   13.5140    6.5850 O   0  0  0  0  0  0  0  0  0  0  0  0
   30.0510   12.3330    8.4300 N   0  0  0  0  0  0  0  0  0  0  0  0
   31.5450   11.9340    7.6020 C   0  0  0  0  0  0  0  0  0  0  0  0
   30.7220   10.8640    7.9390 C   0  0  0  0  0  0  0  0  0  0  0  0
   31.0170    9.5590    7.5720 C   0  0  0  0  0  0  0  0  0  0  0  0
   32.1560    9.3390    6.8090 C   0  0  0  0  0  0  0  0  0  0  0  0
   33.0110   10.3720    6.4380 C   0  0  0  0  0  0  0  0  0  0  0  0
   34.1980   10.0910    5.5530 C   0  0  0  0  0  0  0  0  0  0  0  0
   32.7080   11.6650    6.8730 C   0  0  0  0  0  0  0  0  0  0  0  0
   33.6520   12.7090    6.6590 N   0  0  0  0  0  0  0  0  0  0  0  0
   34.4250   13.2280    7.6390 C   0  0  0  0  0  0  0  0  0  0  0  0
   34.9120   12.5690    8.5560 O   0  0  0  0  0  0  0  0  0  0  0  0
   34.6680   14.7180    7.5670 C   0  0  0  0  0  0  0  0  0  0  0  0
   35.0470   15.1300    6.2680 O   0  0  0  0  0  0  0  0  0  0  0  0
   28.5607   13.8230    9.7209 H   0  0  0  0  0  0  0  0  0  0  0  0
   27.4208   13.9421    8.3516 H   0  0  0  0  0  0  0  0  0  0  0  0
   27.7284   13.4816    9.1961 H   0  0  0  0  0  0  0  0  0  0  0  0
   29.8948   11.7532    9.0891 H   0  0  0  0  0  0  0  0  0  0  0  0
   29.8203   11.0118    8.5503 H   0  0  0  0  0  0  0  0  0  0  0  0
   30.3839    8.7449    7.8712 H   0  0  0  0  0  0  0  0  0  0  0  0
   32.3566    8.3122    6.4720 H   0  0  0  0  0  0  0  0  0  0  0  0
   35.0640    9.8049    6.1554 H   0  0  0  0  0  0  0  0  0  0  0  0
   34.4391   10.9468    4.9168 H   0  0  0  0  0  0  0  0  0  0  0  0
   35.0230   10.7741    5.7857 H   0  0  0  0  0  0  0  0  0  0  0  0
   33.6012   13.2177    5.8123 H   0  0  0  0  0  0  0  0  0  0  0  0
   35.4551   14.9993    8.2734 H   0  0  0  0  0  0  0  0  0  0  0  0
   33.7404   15.2351    7.8296 H   0  0  0  0  0  0  0  0  0  0  0  0
   34.2651   15.5632    5.8725 H   0  0  0  0  0  0  0  0  0  0  0  0
  1  2  1  0
  2  3  2  0
  2  4  1  0
  4  5  1  0
  5  6  4  0
  6  7  4  0
  7  8  4  0
  8  9  4  0
  9 10  1  0
  9 11  4  0
 11 12  1  0
 12 13  1  0
 13 14  2  0
 13 15  1  0
 15 16  1  0
 11  5  4  0
  1 17  1  0
  1 18  1  0
  1 19  1  0
  4 20  1  0
  6 21  1  0
  7 22  1  0
  8 23  1  0
 10 24  1  0
 10 25  1  0
 10 26  1  0
 12 27  1  0
 15 28  1  0
 15 29  1  0
 16 30  1  0
M  END
$$$$
