LIG
     RDKit          3D

 41 42  0  0  0  0  0  0  0  0999 V2000
   34.4770    9.6170    4.1420 C   0  0  0  0  0  0  0  0  0  0  0  0
   34.7220   11.0190    4.6240 C   0  0  0  0  0  0  0  0  0  0  0  0
   35.7630   11.6170    4.3630 O   0  0  0  0  0  0  0  0  0  0  0  0
   33.6960   11.5950    5.3080 N   0  0  0  0  0  0  0  0  0  0  0  0
   33.0286   10.6366    6.9143 C   0  0  0  0  0  0  0  0  0  0  0  0
   31.5630    9.4800    8.9430 C   0  0  0  0  0  0  0  0  0  0  0  0
   32.6580    9.2460    8.1260 C   0  0  0  0  0  0  0  0  0  0  0  0
   33.3470   10.2740    7.4930 C   0  0  0  0  0  0  0  0  0  0  0  0
   34.5920    9.9920    6.6940 C   0  0  0  0  0  0  0  0  0  0  0  0
   32.8900   11.5720    7.6690 C   0  0  0  0  0  0  0  0  0  0  0  0
   33.3940   12.4720    6.7660 O   0  0  0  0  0  0  0  0  0  0  0  0
   32.5070   13.2300    6.0470 C   0  0  0  0  0  0  0  0  0  0  0  0
   32.8430   14.5690    6.5820 C   0  0  0  0  0  0  0  0  0  0  0  0
   32.2450   15.0040    7.5510 O   0  0  0  0  0  0  0  0  0  0  0  0
   33.9260   15.1770    6.0590 N   0  0  0  0  0  0  0  0  0  0  0  0
   34.5050   15.1130    4.7140 C   0  0  0  0  0  0  0  0  0  0  0  0
   35.9790   14.7950    4.8070 C   0  0  0  0  0  0  0  0  0  0  0  0
   36.6530   15.7410    5.6230 O   0  0  0  0  0  0  0  0  0  0  0  0
   36.2000   15.5640    6.9400 C   0  0  0  0  0  0  0  0  0  0  0  0
   34.7260   15.9040    7.0650 C   0  0  0  0  0  0  0  0  0  0  0  0
   31.8380   11.8440    8.5230 C   0  0  0  0  0  0  0  0  0  0  0  0
   33.6461    9.6157    3.4302 H   0  0  0  0  0  0  0  0  0  0  0  0
   33.4552    9.2951    4.3680 H   0  0  0  0  0  0  0  0  0  0  0  0
   34.6101    9.5747    3.0561 H   0  0  0  0  0  0  0  0  0  0  0  0
   33.1492   10.9942    5.9208 H   0  0  0  0  0  0  0  0  0  0  0  0
   30.7145   10.0272    8.5346 H   0  0  0  0  0  0  0  0  0  0  0  0
   32.9876    8.2025    7.9781 H   0  0  0  0  0  0  0  0  0  0  0  0
   35.3514    9.5251    7.3290 H   0  0  0  0  0  0  0  0  0  0  0  0
   34.8247    8.9223    6.6794 H   0  0  0  0  0  0  0  0  0  0  0  0
   34.3606    9.3298    5.8539 H   0  0  0  0  0  0  0  0  0  0  0  0
   32.7464   13.2168    5.0107 H   0  0  0  0  0  0  0  0  0  0  0  0
   31.5042   12.9967    6.3123 H   0  0  0  0  0  0  0  0  0  0  0  0
   34.3496   16.0972    4.2649 H   0  0  0  0  0  0  0  0  0  0  0  0
   33.9840   14.3647    4.1176 H   0  0  0  0  0  0  0  0  0  0  0  0
   36.1358   13.8066    5.2385 H   0  0  0  0  0  0  0  0  0  0  0  0
   36.4402   14.8147    3.8217 H   0  0  0  0  0  0  0  0  0  0  0  0
   36.7899   16.2079    7.5916 H   0  0  0  0  0  0  0  0  0  0  0  0
   36.3760   14.5302    7.2289 H   0  0  0  0  0  0  0  0  0  0  0  0
   34.3378   15.5929    8.0434 H   0  0  0  0  0  0  0  0  0  0  0  0
   34.5660   16.9833    6.9643 H   0  0  0  0  0  0  0  0  0  0  0  0
   30.8154   11.6660    8.2037 H   0  0  0  0  0  0  0  0  0  0  0  0
  1  2  1  0
  2  3  2  0
  2  4  1  0
  4  5  1  0
  5  6  4  0
  6  7  4  0
  7  8  4  0
  8  9  1  0
  8 10  4  0
 10 11  1  0
 11 12  1  0
 12 13  1  0
 13 14  2  0
 13 15  1  0
 15 16  1  0
 16 17  1  0
 17 18  1  0
 18 19  1  0
 19 20  1  0
 10 21  4  0
 21  5  4  0
 20 15  1  0
  1 22  1  0
  1 23  1  0
  1 24  1  0
  4 25  1  0
  6 26  1  0
  7 27  1  0
  9 28  1  0
  9 29  1  0
  9 30  1  0
 12 31  1  0
 12 32  1  0
 16 33  1  0
 16 34  1  0
 17 35  1  0
 17 36  1  0
 19 37  1  0
 19 38  1  0
 20 39  1  0
 20 40  1  0
 21 41  1  0
M  END
$$$$
LIG
     RDKit          3D

 41 42  0  0  0  0  0  0  0  0999 V2000
   34.4770    9.6170    4.1420 C   0  0  0  0  0  0  0  0  0  0  0  0
   34.7220   11.0190    4.6240 C   0  0  0  0  0  0  0  0  0  0  0  0
   35.7630   11.6170    4.3630 O   0  0  0  0  0  0  0  0  0  0  0  0
   33.6960   11.5950    5.3080 N   0  0  0  0  0  0  0  0  0  0  0  0
   33.0286   10.6366    6.9143 C   0  0  0  0  0  0  0  0  0  0  0  0
   31.5630    9.4800    8.9430 C   0  0  0  0  0  0  0  0  0  0  0  0
   32.6580    9.2460    8.1260 C   0  0  0  0  0  0  0  0  0  0  0  0
   33.3470   10.2740    7.4930 C   0  0  0  0  0  0  0  0  0  0  0  0
   34.5920    9.9920    6.6940 C   0  0  0  0  0  0  0  0  0  0  0  0
   32.8900   11.5720    7.6690 C   0  0  0  0  0  0  0  0  0  0  0  0
   33.3940   12.4720    6.7660 O   0  0  0  0  0  0  0  0  0  0  0  0
   32.5070   13.2300    6.0470 C   0  0  0  0  0  0  0  0  0  0  0  0
   32.8430   14.5690    6.5820 C   0  0  0  0  0  0  0  0  0  0  0  0
   32.2450   15.0040    7.5510 O   0  0  0  0  0  0  0  0  0  0  0  0
   33.9260   15.1770    6.0590 N   0  0  0  0  0  0  0  0  0  0  0  0
   34.7260   15.9040    7.0650 C   0  0  0  0  0  0  0  0  0  0  0  0
   36.2000   15.5640    6.9400 C   0  0  0  0  0  0  0  0  0  0  0  0
   36.6530   15.7410    5.6230 O   0  0  0  0  0  0  0  0  0  0  0  0
   35.9790   14.7950    4.8070 C   0  0  0  0  0  0  0  0  0  0  0  0
   34.5050   15.1130    4.7140 C   0  0  0  0  0  0  0  0  0  0  0  0
   31.8380   11.8440    8.5230 C   0  0  0  0  0  0  0  0  0  0  0  0
   34.8137    8.9045    4.9020 H   0  0  0  0  0  0  0  0  0  0  0  0
   33.4072    9.4745    3.9623 H   0  0  0  0  0  0  0  0  0  0  0  0
   35.0332    9.4136    3.2211 H   0  0  0  0  0  0  0  0  0  0  0  0
   33.1958   12.3520    4.8474 H   0  0  0  0  0  0  0  0  0  0  0  0
   30.7139    8.8004    8.8852 H   0  0  0  0  0  0  0  0  0  0  0  0
   32.9876    8.2025    7.9781 H   0  0  0  0  0  0  0  0  0  0  0  0
   35.0211   10.9117    6.2832 H   0  0  0  0  0  0  0  0  0  0  0  0
   35.3516    9.5256    7.3291 H   0  0  0  0  0  0  0  0  0  0  0  0
   35.4490   10.5129    7.1323 H   0  0  0  0  0  0  0  0  0  0  0  0
   31.5042   12.9967    6.3123 H   0  0  0  0  0  0  0  0  0  0  0  0
   32.7464   13.2168    5.0106 H   0  0  0  0  0  0  0  0  0  0  0  0
   34.3378   15.5929    8.0434 H   0  0  0  0  0  0  0  0  0  0  0  0
   34.5660   16.9833    6.9643 H   0  0  0  0  0  0  0  0  0  0  0  0
   36.3760   14.5302    7.2289 H   0  0  0  0  0  0  0  0  0  0  0  0
   36.7899   16.2079    7.5916 H   0  0  0  0  0  0  0  0  0  0  0  0
   36.1358   13.8066    5.2385 H   0  0  0  0  0  0  0  0  0  0  0  0
   36.4402   14.8147    3.8217 H   0  0  0  0  0  0  0  0  0  0  0  0
   33.9840   14.3647    4.1176 H   0  0  0  0  0  0  0  0  0  0  0  0
   34.3496   16.0972    4.2649 H   0  0  0  0  0  0  0  0  0  0  0  0
   32.0108   11.9317    9.5916 H   0  0  0  0  0  0  0  0  0  0  0  0
  1  2  1  0
  2  3  2  0
  2  4  1  0
  4  5  1  0
  5  6  4  0
  6  7  4  0
  7  8  4  0
  8  9  1  0
  8 10  4  0
 10 11  1  0
 11 12  1  0
 12 13  1  0
 13 14  2  0
 13 15  1  0
 15 16  1  0
 16 17  1  0
 17 18  1  0
 18 19  1  0
 19 20  1  0
 10 21  4  0
 21  5  4  0
 20 15  1  0
  1 22  1  0
  1 23  1  0
  1 24  1  0
  4 25  1  0
  6 26  1  0
  7 27  1  0
  9 28  1  0
  9 29  1  0
  9 30  1  0
 12 31  1  0
 12 32  1  0
 16 33  1  0
 16 34  1  0
 17 35  1  0
 17 36  1  0
 19 37  1  0
 19 38  1  0
 20 39  1  0
 20 40  1  0
 21 41  1  0
M  END
$$$$
LIG
     RDKit          3D

 41 42  0  0  0  0  0  0  0  0999 V2000
   34.4770    9.6170    4.1420 C   0  0  0  0  0  0  0  0  0  0  0  0
   34.7220   11.0190    4.6240 C   0  0  0  0  0  0  0  0  0  0  0  0
   35.7630   11.6170    4.3630 O   0  0  0  0  0  0  0  0  0  0  0  0
   33.6960   11.5950    5.3080 N   0  0  0  0  0  0  0  0  0  0  0  0
   33.0296   10.6363    6.9148 C   0  0  0  0  0  0  0  0  0  0  0  0
   31.5630    9.4800    8.9430 C   0  0  0  0  0  0  0  0  0  0  0  0
   32.6580    9.2460    8.1260 C   0  0  0  0  0  0  0  0  0  0  0  0
   33.3470   10.2740    7.4930 C   0  0  0  0  0  0  0  0  0  0  0  0
   34.5920    9.9920    6.6940 C   0  0  0  0  0  0  0  0  0  0  0  0
   32.8900   11.5720    7.6690 C   0  0  0  0  0  0  0  0  0  0  0  0
   33.3940   12.4720    6.7660 O   0  0  0  0  0  0  0  0  0  0  0  0
   32.5070   13.2300    6.0470 C   0  0  0  0  0  0  0  0  0  0  0  0
   32.8430   14.5690    6.5820 C   0  0  0  0  0  0  0  0  0  0  0  0
   32.2450   15.0040    7.5510 O   0  0  0  0  0  0  0  0  0  0  0  0
   33.9260   15.1770    6.0590 N   0  0  0  0  0  0  0  0  0  0  0  0
   34.5050   15.1130    4.7140 C   0  0  0  0  0  0  0  0  0  0  0  0
   35.9790   14.7950    4.8070 C   0  0  0  0  0  0  0  0  0  0  0  0
   36.6530   15.7410    5.6230 O   0  0  0  0  0  0  0  0  0  0  0  0
   36.2000   15.5640    6.9400 C   0  0  0  0  0  0  0  0  0  0  0  0
   34.7260   15.9040    7.0650 C   0  0  0  0  0  0  0  0  0  0  0  0
   31.8380   11.8440    8.5230 C   0  0  0  0  0  0  0  0  0  0  0  0
   35.4024    9.1863    3.7465 H   0  0  0  0  0  0  0  0  0  0  0  0
   34.7000    9.5488    3.0725 H   0  0  0  0  0  0  0  0  0  0  0  0
   35.1249    8.9192    4.6813 H   0  0  0  0  0  0  0  0  0  0  0  0
   32.8137   11.0882    5.3354 H   0  0  0  0  0  0  0  0  0  0  0  0
   30.5648    9.3875    8.5174 H   0  0  0  0  0  0  0  0  0  0  0  0
   32.9880    8.2025    7.9787 H   0  0  0  0  0  0  0  0  0  0  0  0
   34.4573   10.3145    5.6569 H   0  0  0  0  0  0  0  0  0  0  0  0
   34.3610    9.3275    5.8555 H   0  0  0  0  0  0  0  0  0  0  0  0
   34.8264    8.9227    6.6820 H   0  0  0  0  0  0  0  0  0  0  0  0
   31.5042   12.9968    6.3121 H   0  0  0  0  0  0  0  0  0  0  0  0
   32.7469   13.2169    5.0108 H   0  0  0  0  0  0  0  0  0  0  0  0
   34.3474   16.0978    4.2643 H   0  0  0  0  0  0  0  0  0  0  0  0
   33.9829   14.3680    4.1101 H   0  0  0  0  0  0  0  0  0  0  0  0
   36.4402   14.8107    3.8240 H   0  0  0  0  0  0  0  0  0  0  0  0
   36.1304   13.8114    5.2465 H   0  0  0  0  0  0  0  0  0  0  0  0
   36.7947   16.2008    7.5978 H   0  0  0  0  0  0  0  0  0  0  0  0
   36.3742   14.5269    7.2264 H   0  0  0  0  0  0  0  0  0  0  0  0
   34.3394   15.5928    8.0426 H   0  0  0  0  0  0  0  0  0  0  0  0
   34.5672   16.9800    6.9561 H   0  0  0  0  0  0  0  0  0  0  0  0
   31.5759   11.1410    9.3082 H   0  0  0  0  0  0  0  0  0  0  0  0
  1  2  1  0
  2  3  2  0
  2  4  1  0
  4  5  1  0
  5  6  4  0
  6  7  4  0
  7  8  4  0
  8  9  1  0
  8 10  4  0
 10 11  1  0
 11 12  1  0
 12 13  1  0
 13 14  2  0
 13 15  1  0
 15 16  1  0
 16 17  1  0
 17 18  1  0
 18 19  1  0
 19 20  1  0
 10 21  4  0
 21  5  4  0
 20 15  1  0
  1 22  1  0
  1 23  1  0
  1 24  1  0
  4 25  1  0
  6 26  1  0
  7 27  1  0
  9 28  1  0
  9 29  1  0
  9 30  1  0
 12 31  1  0
 12 32  1  0
 16 33  1  0
 16 34  1  0
 17 35  1  0
 17 36  1  0
 19 37  1  0
 19 38  1  0
 20 39  1  0
 20 40  1  0
 21 41  1  0
M  END
$$$$
