LIG
     RDKit          3D

 41 42  0  0  0  0  0  0  0  0999 V2000
   34.4770    9.6170    4.1420 C   0  0  0  0  0  0  0  0  0  0  0  0
   34.7220   11.0190    4.6240 C   0  0  0  0  0  0  0  0  0  0  0  0
   35.7630   11.6170    4.3630 O   0  0  0  0  0  0  0  0  0  0  0  0
   33.6960   11.5950    5.3080 N   0  0  0  0  0  0  0  0  0  0  0  0
   33.0250   10.6339    6.9128 C   0  0  0  0  0  0  0  0  0  0  0  0
   31.5630    9.4800    8.9430 C   0  0  0  0  0  0  0  0  0  0  0  0
   32.6580    9.2460    8.1260 C   0  0  0  0  0  0  0  0  0  0  0  0
   33.3470   10.2740    7.4930 C   0  0  0  0  0  0  0  0  0  0  0  0
   34.5920    9.9920    6.6940 C   0  0  0  0  0  0  0  0  0  0  0  0
   32.8900   11.5720    7.6690 C   0  0  0  0  0  0  0  0  0  0  0  0
   33.3940   12.4720    6.7660 O   0  0  0  0  0  0  0  0  0  0  0  0
   32.5070   13.2300    6.0470 C   0  0  0  0  0  0  0  0  0  0  0  0
   32.8430   14.5690    6.5820 C   0  0  0  0  0  0  0  0  0  0  0  0
   32.2450   15.0040    7.5510 O   0  0  0  0  0  0  0  0  0  0  0  0
   33.9260   15.1770    6.0590 N   0  0  0  0  0  0  0  0  0  0  0  0
   34.7260   15.9040    7.0650 C   0  0  0  0  0  0  0  0  0  0  0  0
   36.2000   15.5640    6.9400 C   0  0  0  0  0  0  0  0  0  0  0  0
   36.6530   15.7410    5.6230 O   0  0  0  0  0  0  0  0  0  0  0  0
   35.9790   14.7950    4.8070 C   0  0  0  0  0  0  0  0  0  0  0  0
   34.5050   15.1130    4.7140 C   0  0  0  0  0  0  0  0  0  0  0  0
   31.8380   11.8440    8.5230 C   0  0  0  0  0  0  0  0  0  0  0  0
   35.4053    9.2015    3.7361 H   0  0  0  0  0  0  0  0  0  0  0  0
   34.1387    8.9979    4.9781 H   0  0  0  0  0  0  0  0  0  0  0  0
   33.7254    9.5981    3.3461 H   0  0  0  0  0  0  0  0  0  0  0  0
   32.7754   11.5736    4.8742 H   0  0  0  0  0  0  0  0  0  0  0  0
   30.8174   10.2064    8.6221 H   0  0  0  0  0  0  0  0  0  0  0  0
   32.9900    8.2035    7.9819 H   0  0  0  0  0  0  0  0  0  0  0  0
   35.3132    9.4311    7.2965 H   0  0  0  0  0  0  0  0  0  0  0  0
   35.0811   10.9183    6.3769 H   0  0  0  0  0  0  0  0  0  0  0  0
   35.4647   10.4231    7.1933 H   0  0  0  0  0  0  0  0  0  0  0  0
   32.8332   13.2278    5.0400 H   0  0  0  0  0  0  0  0  0  0  0  0
   31.5255   12.9148    6.1403 H   0  0  0  0  0  0  0  0  0  0  0  0
   34.3747   15.6654    8.0677 H   0  0  0  0  0  0  0  0  0  0  0  0
   34.5571   16.9678    6.8743 H   0  0  0  0  0  0  0  0  0  0  0  0
   36.3871   14.5281    7.2397 H   0  0  0  0  0  0  0  0  0  0  0  0
   36.7915   16.2089    7.5938 H   0  0  0  0  0  0  0  0  0  0  0  0
   36.1343   13.8109    5.2326 H   0  0  0  0  0  0  0  0  0  0  0  0
   36.4349   14.8286    3.8221 H   0  0  0  0  0  0  0  0  0  0  0  0
   33.9669   14.3223    4.1825 H   0  0  0  0  0  0  0  0  0  0  0  0
   34.3467   16.0530    4.1805 H   0  0  0  0  0  0  0  0  0  0  0  0
   32.0271   12.1535    9.5433 H   0  0  0  0  0  0  0  0  0  0  0  0
  1  2  1  0
  2  3  2  0
  2  4  1  0
  4  5  1  0
  5  6  4  0
  6  7  4  0
  7  8  4  0
  8  9  1  0
  8 10  4  0
 10 11  1  0
 11 12  1  0
 12 13  1  0
 13 14  2  0
 13 15  1  0
 15 16  1  0
 16 17  1  0
 17 18  1  0
 18 19  1  0
 19 20  1  0
 10 21  4  0
 21  5  4  0
 20 15  1  0
  1 22  1  0
  1 23  1  0
  1 24  1  0
  4 25  1  0
  6 26  1  0
  7 27  1  0
  9 28  1  0
  9 29  1  0
  9 30  1  0
 12 31  1  0
 12 32  1  0
 16 33  1  0
 16 34  1  0
 17 35  1  0
 17 36  1  0
 19 37  1  0
 19 38  1  0
 20 39  1  0
 20 40  1  0
 21 41  1  0
M  END
