LIG
     RDKit          3D

 41 42  0  0  0  0  0  0  0  0999 V2000
    5.1249    3.3701   -0.1170 C   0  0  0  0  0  0  0  0  0  0  0  0
    5.0161    1.8757    0.0600 C   0  0  0  0  0  0  0  0  0  0  0  0
    6.0196    1.1900    0.2154 O   0  0  0  0  0  0  0  0  0  0  0  0
    3.7011    1.4441    0.0492 N   0  0  0  0  0  0  0  0  0  0  0  0
    3.2290    0.1206    0.1908 C   0  0  0  0  0  0  0  0  0  0  0  0
    4.0604   -0.9847    0.3571 C   0  0  0  0  0  0  0  0  0  0  0  0
    3.5163   -2.2647    0.4898 C   0  0  0  0  0  0  0  0  0  0  0  0
    2.1305   -2.4603    0.4576 C   0  0  0  0  0  0  0  0  0  0  0  0
    1.5669   -3.8474    0.6033 C   0  0  0  0  0  0  0  0  0  0  0  0
    1.2842   -1.3527    0.2896 C   0  0  0  0  0  0  0  0  0  0  0  0
   -0.0554   -1.6373    0.2687 O   0  0  0  0  0  0  0  0  0  0  0  0
   -0.9690   -0.5617    0.1099 C   0  0  0  0  0  0  0  0  0  0  0  0
   -2.4204   -1.0644    0.1229 C   0  0  0  0  0  0  0  0  0  0  0  0
   -2.7081   -2.2304    0.3966 O   0  0  0  0  0  0  0  0  0  0  0  0
   -3.4035   -0.1320   -0.1919 N   0  0  0  0  0  0  0  0  0  0  0  0
   -3.1639    1.2806   -0.4972 C   0  0  0  0  0  0  0  0  0  0  0  0
   -4.4319    2.1153   -0.2907 C   0  0  0  0  0  0  0  0  0  0  0  0
   -5.5365    1.6723   -1.0872 O   0  0  0  0  0  0  0  0  0  0  0  0
   -5.5680    0.2546   -1.3137 C   0  0  0  0  0  0  0  0  0  0  0  0
   -4.8020   -0.5626   -0.2689 C   0  0  0  0  0  0  0  0  0  0  0  0
    1.8384   -0.0727    0.1576 C   0  0  0  0  0  0  0  0  0  0  0  0
    6.1228    3.6204   -0.4888 H   0  0  0  0  0  0  0  0  0  0  0  0
    4.3921    3.7315   -0.8443 H   0  0  0  0  0  0  0  0  0  0  0  0
    4.9625    3.8619    0.8456 H   0  0  0  0  0  0  0  0  0  0  0  0
    2.9940    2.1580   -0.0656 H   0  0  0  0  0  0  0  0  0  0  0  0
    5.1413   -0.8908    0.3885 H   0  0  0  0  0  0  0  0  0  0  0  0
    4.1893   -3.1099    0.6190 H   0  0  0  0  0  0  0  0  0  0  0  0
    0.9206   -3.9034    1.4853 H   0  0  0  0  0  0  0  0  0  0  0  0
    2.3601   -4.5925    0.7256 H   0  0  0  0  0  0  0  0  0  0  0  0
    0.9918   -4.1186   -0.2880 H   0  0  0  0  0  0  0  0  0  0  0  0
   -0.8594    0.1404    0.9442 H   0  0  0  0  0  0  0  0  0  0  0  0
   -0.7909   -0.0693   -0.8528 H   0  0  0  0  0  0  0  0  0  0  0  0
   -2.8504    1.3241   -1.5465 H   0  0  0  0  0  0  0  0  0  0  0  0
   -2.3514    1.6666    0.1241 H   0  0  0  0  0  0  0  0  0  0  0  0
   -4.7433    2.0845    0.7600 H   0  0  0  0  0  0  0  0  0  0  0  0
   -4.2404    3.1626   -0.5444 H   0  0  0  0  0  0  0  0  0  0  0  0
   -6.6183   -0.0520   -1.3412 H   0  0  0  0  0  0  0  0  0  0  0  0
   -5.1482    0.0768   -2.3107 H   0  0  0  0  0  0  0  0  0  0  0  0
   -4.8653   -1.6302   -0.5021 H   0  0  0  0  0  0  0  0  0  0  0  0
   -5.2330   -0.4038    0.7265 H   0  0  0  0  0  0  0  0  0  0  0  0
    1.1977    0.7912    0.0274 H   0  0  0  0  0  0  0  0  0  0  0  0
  1  2  1  0
  2  3  2  0
  2  4  1  0
  4  5  1  0
  5  6  2  0
  6  7  1  0
  7  8  2  0
  8  9  1  0
  8 10  1  0
 10 11  1  0
 11 12  1  0
 12 13  1  0
 13 14  2  0
 13 15  1  0
 15 16  1  0
 16 17  1  0
 17 18  1  0
 18 19  1  0
 19 20  1  0
 10 21  2  0
 21  5  1  0
 20 15  1  0
  1 22  1  0
  1 23  1  0
  1 24  1  0
  4 25  1  0
  6 26  1  0
  7 27  1  0
  9 28  1  0
  9 29  1  0
  9 30  1  0
 12 31  1  0
 12 32  1  0
 16 33  1  0
 16 34  1  0
 17 35  1  0
 17 36  1  0
 19 37  1  0
 19 38  1  0
 20 39  1  0
 20 40  1  0
 21 41  1  0
M  END
