LIG
     RDKit          3D

 43 44  0  0  0  0  0  0  0  0999 V2000
   30.6245    9.7503    8.5978 C   0  0  0  0  0  0  0  0  0  0  0  0
   31.4586   10.5379    7.6404 C   0  0  0  0  0  0  0  0  0  0  0  0
   32.0315    9.7536    6.6343 C   0  0  0  0  0  0  0  0  0  0  0  0
   32.7577   10.2212    5.6061 N   0  0  0  0  0  0  0  0  0  0  0  0
   32.9979   11.5364    5.5953 C   0  0  0  0  0  0  0  0  0  0  0  0
   33.5216   11.9593    4.4173 O   0  0  0  0  0  0  0  0  0  0  0  0
   34.2722   13.1601    4.4359 C   0  0  0  0  0  0  0  0  0  0  0  0
   34.4618   13.5400    2.9788 C   0  0  0  0  0  0  0  0  0  0  0  0
   35.5130   13.2522    2.4025 O   0  0  0  0  0  0  0  0  0  0  0  0
   33.4182   14.2110    2.3310 N   0  0  0  0  0  0  0  0  0  0  0  0
   33.6024   14.4825    0.9159 C   0  0  0  0  0  0  0  0  0  0  0  0
   32.0427   14.1990    2.7975 C   0  0  0  0  0  0  0  0  0  0  0  0
   32.5889   12.3823    6.6119 C   0  0  0  0  0  0  0  0  0  0  0  0
   31.7748   11.9103    7.6445 C   0  0  0  0  0  0  0  0  0  0  0  0
   31.5499   12.8934    8.6481 N   0  0  0  0  0  0  0  0  0  0  0  0
   30.4707   13.5051    9.2085 C   0  0  0  0  0  0  0  0  0  0  0  0
   30.7610   14.4102   10.0039 O   0  0  0  0  0  0  0  0  0  0  0  0
   29.0352   13.2767    8.7507 C   0  0  0  0  0  0  0  0  0  0  0  0
   28.6014   14.4447    7.8766 C   0  0  0  0  0  0  0  0  0  0  0  0
   28.9205   13.9480    6.4952 C   0  0  0  0  0  0  0  0  0  0  0  0
   28.6196   12.4862    6.6197 C   0  0  0  0  0  0  0  0  0  0  0  0
   28.8560   12.1131    7.9623 O   0  0  0  0  0  0  0  0  0  0  0  0
   30.2289   10.3868    9.3717 H   0  0  0  0  0  0  0  0  0  0  0  0
   31.1972    8.9441    9.0627 H   0  0  0  0  0  0  0  0  0  0  0  0
   29.7794    9.2948    8.0741 H   0  0  0  0  0  0  0  0  0  0  0  0
   31.8937    8.6746    6.6359 H   0  0  0  0  0  0  0  0  0  0  0  0
   35.2543   12.9821    4.8888 H   0  0  0  0  0  0  0  0  0  0  0  0
   33.8016   14.0052    4.9437 H   0  0  0  0  0  0  0  0  0  0  0  0
   33.2535   13.6182    0.3426 H   0  0  0  0  0  0  0  0  0  0  0  0
   33.0246   15.3687    0.6375 H   0  0  0  0  0  0  0  0  0  0  0  0
   34.6540   14.6674    0.6783 H   0  0  0  0  0  0  0  0  0  0  0  0
   31.5589   13.2903    2.4289 H   0  0  0  0  0  0  0  0  0  0  0  0
   31.5201   15.0765    2.4062 H   0  0  0  0  0  0  0  0  0  0  0  0
   31.9766   14.2171    3.8858 H   0  0  0  0  0  0  0  0  0  0  0  0
   32.8310   13.4359    6.5928 H   0  0  0  0  0  0  0  0  0  0  0  0
   32.3508   13.4847    8.8457 H   0  0  0  0  0  0  0  0  0  0  0  0
   28.4022   13.2167    9.6396 H   0  0  0  0  0  0  0  0  0  0  0  0
   29.0823   15.3971    8.1132 H   0  0  0  0  0  0  0  0  0  0  0  0
   27.5193   14.5903    7.9673 H   0  0  0  0  0  0  0  0  0  0  0  0
   29.9800   14.0705    6.2653 H   0  0  0  0  0  0  0  0  0  0  0  0
   28.3478   14.4300    5.7013 H   0  0  0  0  0  0  0  0  0  0  0  0
   29.2864   11.9264    5.9735 H   0  0  0  0  0  0  0  0  0  0  0  0
   27.5781   12.2593    6.3731 H   0  0  0  0  0  0  0  0  0  0  0  0
  1  2  1  0
  2  3  2  0
  3  4  1  0
  4  5  2  0
  5  6  1  0
  6  7  1  0
  7  8  1  0
  8  9  2  0
  8 10  1  0
 10 11  1  0
 10 12  1  0
  5 13  1  0
 13 14  2  0
 14 15  1  0
 15 16  1  0
 16 17  2  0
 16 18  1  0
 18 19  1  0
 19 20  1  0
 20 21  1  0
 21 22  1  0
 14  2  1  0
 22 18  1  0
  1 23  1  0
  1 24  1  0
  1 25  1  0
  3 26  1  0
  7 27  1  0
  7 28  1  0
 11 29  1  0
 11 30  1  0
 11 31  1  0
 12 32  1  0
 12 33  1  0
 12 34  1  0
 13 35  1  0
 15 36  1  0
 18 37  1  0
 19 38  1  0
 19 39  1  0
 20 40  1  0
 20 41  1  0
 21 42  1  0
 21 43  1  0
M  END
