LIG
     RDKit          3D

 40 41  0  0  0  0  0  0  0  0999 V2000
   34.4770    9.6170    4.1420 C   0  0  0  0  0  0  0  0  0  0  0  0
   34.7220   11.0190    4.6240 C   0  0  0  0  0  0  0  0  0  0  0  0
   35.7630   11.6170    4.3630 O   0  0  0  0  0  0  0  0  0  0  0  0
   33.6960   11.5950    5.3080 N   0  0  0  0  0  0  0  0  0  0  0  0
   32.7634   10.5705    7.2492 C   0  0  0  0  0  0  0  0  0  0  0  0
   31.8380   11.8440    8.5230 C   0  0  0  0  0  0  0  0  0  0  0  0
   32.8900   11.5720    7.6690 C   0  0  0  0  0  0  0  0  0  0  0  0
   33.3940   12.4720    6.7660 O   0  0  0  0  0  0  0  0  0  0  0  0
   32.5070   13.2300    6.0470 C   0  0  0  0  0  0  0  0  0  0  0  0
   32.8430   14.5690    6.5820 C   0  0  0  0  0  0  0  0  0  0  0  0
   32.2450   15.0040    7.5510 O   0  0  0  0  0  0  0  0  0  0  0  0
   33.9260   15.1770    6.0590 N   0  0  0  0  0  0  0  0  0  0  0  0
   34.7260   15.9040    7.0650 C   0  0  0  0  0  0  0  0  0  0  0  0
   36.2000   15.5640    6.9400 C   0  0  0  0  0  0  0  0  0  0  0  0
   36.6530   15.7410    5.6230 O   0  0  0  0  0  0  0  0  0  0  0  0
   35.9790   14.7950    4.8070 C   0  0  0  0  0  0  0  0  0  0  0  0
   34.5050   15.1130    4.7140 C   0  0  0  0  0  0  0  0  0  0  0  0
   33.3470   10.2740    7.4930 N   0  0  0  0  0  0  0  0  0  0  0  0
   32.6580    9.2460    8.1260 C   0  0  0  0  0  0  0  0  0  0  0  0
   31.5630    9.4800    8.9430 C   0  0  0  0  0  0  0  0  0  0  0  0
   30.8480    8.3410    9.6370 C   0  0  0  0  0  0  0  0  0  0  0  0
   34.5316    9.5651    3.0497 H   0  0  0  0  0  0  0  0  0  0  0  0
   33.5921    9.5992    3.4976 H   0  0  0  0  0  0  0  0  0  0  0  0
   33.4909    9.2813    4.4768 H   0  0  0  0  0  0  0  0  0  0  0  0
   33.1081   12.2376    4.7852 H   0  0  0  0  0  0  0  0  0  0  0  0
   32.0263   12.4759    9.3826 H   0  0  0  0  0  0  0  0  0  0  0  0
   32.6238   13.1397    5.0182 H   0  0  0  0  0  0  0  0  0  0  0  0
   31.5380   12.9926    6.3897 H   0  0  0  0  0  0  0  0  0  0  0  0
   34.5742   16.9781    6.9495 H   0  0  0  0  0  0  0  0  0  0  0  0
   34.3377   15.5973    8.0419 H   0  0  0  0  0  0  0  0  0  0  0  0
   36.3735   14.5264    7.2258 H   0  0  0  0  0  0  0  0  0  0  0  0
   36.7953   16.1984    7.5997 H   0  0  0  0  0  0  0  0  0  0  0  0
   36.4401   14.8103    3.8244 H   0  0  0  0  0  0  0  0  0  0  0  0
   36.1301   13.8127    5.2481 H   0  0  0  0  0  0  0  0  0  0  0  0
   34.3475   16.0987    4.2635 H   0  0  0  0  0  0  0  0  0  0  0  0
   33.9858   14.3696    4.1043 H   0  0  0  0  0  0  0  0  0  0  0  0
   33.0485    8.2741    7.9241 H   0  0  0  0  0  0  0  0  0  0  0  0
   30.6439    8.5780   10.6843 H   0  0  0  0  0  0  0  0  0  0  0  0
   31.4521    7.9733   10.4698 H   0  0  0  0  0  0  0  0  0  0  0  0
   31.4669    7.4409    9.6148 H   0  0  0  0  0  0  0  0  0  0  0  0
  1  2  1  0
  2  3  2  0
  2  4  1  0
  4  5  1  0
  5  6  4  0
  6  7  4  0
  7  8  1  0
  8  9  1  0
  9 10  1  0
 10 11  2  0
 10 12  1  0
 12 13  1  0
 13 14  1  0
 14 15  1  0
 15 16  1  0
 16 17  1  0
  7 18  4  0
 18 19  4  0
 19 20  4  0
 20 21  1  0
 20  5  4  0
 17 12  1  0
  1 22  1  0
  1 23  1  0
  1 24  1  0
  4 25  1  0
  6 26  1  0
  9 27  1  0
  9 28  1  0
 13 29  1  0
 13 30  1  0
 14 31  1  0
 14 32  1  0
 16 33  1  0
 16 34  1  0
 17 35  1  0
 17 36  1  0
 19 37  1  0
 21 38  1  0
 21 39  1  0
 21 40  1  0
M  END
