LIG
     RDKit          3D

 45 46  0  0  0  0  0  0  0  0999 V2000
   30.1654   15.3333   11.0575 C   0  0  0  0  0  0  0  0  0  0  0  0
   29.4870   14.6600    9.9619 N   0  0  0  0  0  0  0  0  0  0  0  0
   28.3253   15.2548    9.3314 C   0  0  0  0  0  0  0  0  0  0  0  0
   30.2031   13.6564    9.3250 C   0  0  0  0  0  0  0  0  0  0  0  0
   31.4177   13.5580    9.4824 O   0  0  0  0  0  0  0  0  0  0  0  0
   29.3665   12.6864    8.4760 C   0  0  0  0  0  0  0  0  0  0  0  0
   29.6965   11.3191    8.5821 O   0  0  0  0  0  0  0  0  0  0  0  0
   30.7377   10.7985    7.9023 C   0  0  0  0  0  0  0  0  0  0  0  0
   31.4719   11.5139    6.9727 C   0  0  0  0  0  0  0  0  0  0  0  0
   32.4974   10.9194    6.2502 C   0  0  0  0  0  0  0  0  0  0  0  0
   33.2723   11.5521    5.3249 O   0  0  0  0  0  0  0  0  0  0  0  0
   32.9204   12.8799    4.9484 C   0  0  0  0  0  0  0  0  0  0  0  0
   33.4628   13.8605    5.9650 C   0  0  0  0  0  0  0  0  0  0  0  0
   32.9736   13.8964    7.0964 O   0  0  0  0  0  0  0  0  0  0  0  0
   34.5249   14.6672    5.6338 N   0  0  0  0  0  0  0  0  0  0  0  0
   35.4512   14.8931    6.7391 C   0  0  0  0  0  0  0  0  0  0  0  0
   36.5253   13.8080    6.6351 C   0  0  0  0  0  0  0  0  0  0  0  0
   37.2690   13.9989    5.4124 O   0  0  0  0  0  0  0  0  0  0  0  0
   36.4019   13.8040    4.2784 C   0  0  0  0  0  0  0  0  0  0  0  0
   35.1961   14.7495    4.3303 C   0  0  0  0  0  0  0  0  0  0  0  0
   32.7538    9.5678    6.4330 C   0  0  0  0  0  0  0  0  0  0  0  0
   32.0028    8.8381    7.3547 C   0  0  0  0  0  0  0  0  0  0  0  0
   31.0259    9.4570    8.1129 C   0  0  0  0  0  0  0  0  0  0  0  0
   30.3747    8.7432    9.0441 F   0  0  0  0  0  0  0  0  0  0  0  0
   30.9318   14.6945   11.4970 H   0  0  0  0  0  0  0  0  0  0  0  0
   29.4389   15.5555   11.8418 H   0  0  0  0  0  0  0  0  0  0  0  0
   30.6586   16.2356   10.6913 H   0  0  0  0  0  0  0  0  0  0  0  0
   28.6126   16.2076    8.8809 H   0  0  0  0  0  0  0  0  0  0  0  0
   27.9255   14.6660    8.5048 H   0  0  0  0  0  0  0  0  0  0  0  0
   27.5364   15.3628   10.0700 H   0  0  0  0  0  0  0  0  0  0  0  0
   28.3361   12.7269    8.8391 H   0  0  0  0  0  0  0  0  0  0  0  0
   29.3214   13.0333    7.4376 H   0  0  0  0  0  0  0  0  0  0  0  0
   31.2287   12.5502    6.8153 H   0  0  0  0  0  0  0  0  0  0  0  0
   31.8428   13.0295    4.8217 H   0  0  0  0  0  0  0  0  0  0  0  0
   33.3421   13.0295    3.9563 H   0  0  0  0  0  0  0  0  0  0  0  0
   34.9618   14.8572    7.7162 H   0  0  0  0  0  0  0  0  0  0  0  0
   35.8901   15.8761    6.5962 H   0  0  0  0  0  0  0  0  0  0  0  0
   36.0772   12.8136    6.5993 H   0  0  0  0  0  0  0  0  0  0  0  0
   37.2185   13.8223    7.4786 H   0  0  0  0  0  0  0  0  0  0  0  0
   36.0805   12.7560    4.2589 H   0  0  0  0  0  0  0  0  0  0  0  0
   36.9882   13.9901    3.3733 H   0  0  0  0  0  0  0  0  0  0  0  0
   35.5630   15.7716    4.2144 H   0  0  0  0  0  0  0  0  0  0  0  0
   34.5028   14.5698    3.5070 H   0  0  0  0  0  0  0  0  0  0  0  0
   33.5381    9.0715    5.8656 H   0  0  0  0  0  0  0  0  0  0  0  0
   32.1868    7.7866    7.5122 H   0  0  0  0  0  0  0  0  0  0  0  0
  1  2  1  0
  2  3  1  0
  2  4  1  0
  4  5  2  0
  4  6  1  0
  6  7  1  0
  7  8  1  0
  8  9  2  0
  9 10  1  0
 10 11  1  0
 11 12  1  0
 12 13  1  0
 13 14  2  0
 13 15  1  0
 15 16  1  0
 16 17  1  0
 17 18  1  0
 18 19  1  0
 19 20  1  0
 10 21  2  0
 21 22  1  0
 22 23  2  0
 23 24  1  0
 23  8  1  0
 20 15  1  0
  1 25  1  0
  1 26  1  0
  1 27  1  0
  3 28  1  0
  3 29  1  0
  3 30  1  0
  6 31  1  0
  6 32  1  0
  9 33  1  0
 12 34  1  0
 12 35  1  0
 16 36  1  0
 16 37  1  0
 17 38  1  0
 17 39  1  0
 19 40  1  0
 19 41  1  0
 20 42  1  0
 20 43  1  0
 21 44  1  0
 22 45  1  0
M  END
