LIG
     RDKit          3D

 37 37  0  0  0  0  0  0  0  0999 V2000
   33.6569   10.0266    5.2842 C   0  0  0  0  0  0  0  0  0  0  0  0
   32.6331   10.5757    6.2252 C   0  0  0  0  0  0  0  0  0  0  0  0
   31.7419    9.7264    6.8867 C   0  0  0  0  0  0  0  0  0  0  0  0
   30.7219   10.2446    7.6936 C   0  0  0  0  0  0  0  0  0  0  0  0
   30.5294   11.6193    7.7917 C   0  0  0  0  0  0  0  0  0  0  0  0
   29.4476   12.0369    8.4972 O   0  0  0  0  0  0  0  0  0  0  0  0
   29.2976   13.4135    8.7972 C   0  0  0  0  0  0  0  0  0  0  0  0
   30.3304   14.1380    9.7073 C   0  0  0  0  0  0  0  0  0  0  0  0
   31.5449   14.0106    9.5664 O   0  0  0  0  0  0  0  0  0  0  0  0
   29.8628   15.0560   10.6483 N   0  0  0  0  0  0  0  0  0  0  0  0
   30.8997   15.7816   11.3662 C   0  0  0  0  0  0  0  0  0  0  0  0
   28.7102   14.6895   11.4242 C   0  0  0  0  0  0  0  0  0  0  0  0
   31.4518   12.4536    7.1960 C   0  0  0  0  0  0  0  0  0  0  0  0
   32.5560   11.9316    6.5279 C   0  0  0  0  0  0  0  0  0  0  0  0
   33.6345   12.8045    6.3103 N   0  0  0  0  0  0  0  0  0  0  0  0
   34.2555   13.3706    7.4295 C   0  0  0  0  0  0  0  0  0  0  0  0
   33.9963   13.0696    8.5984 O   0  0  0  0  0  0  0  0  0  0  0  0
   35.3022   14.4218    7.1412 C   0  0  0  0  0  0  0  0  0  0  0  0
   35.6957   14.6167    5.3857 S   0  0  0  0  0  0  0  0  0  0  0  0
   33.5672    8.9414    5.1808 H   0  0  0  0  0  0  0  0  0  0  0  0
   34.6691   10.2406    5.6352 H   0  0  0  0  0  0  0  0  0  0  0  0
   33.5276   10.4673    4.2904 H   0  0  0  0  0  0  0  0  0  0  0  0
   31.8380    8.6467    6.7985 H   0  0  0  0  0  0  0  0  0  0  0  0
   30.0470    9.5596    8.2023 H   0  0  0  0  0  0  0  0  0  0  0  0
   29.2292   13.9904    7.8649 H   0  0  0  0  0  0  0  0  0  0  0  0
   28.3024   13.4971    9.2355 H   0  0  0  0  0  0  0  0  0  0  0  0
   31.6913   16.1152   10.6915 H   0  0  0  0  0  0  0  0  0  0  0  0
   31.3336   15.1246   12.1102 H   0  0  0  0  0  0  0  0  0  0  0  0
   30.4861   16.6593   11.8645 H   0  0  0  0  0  0  0  0  0  0  0  0
   28.8220   13.6823   11.8082 H   0  0  0  0  0  0  0  0  0  0  0  0
   27.8143   14.7437   10.8051 H   0  0  0  0  0  0  0  0  0  0  0  0
   28.6133   15.3538   12.2830 H   0  0  0  0  0  0  0  0  0  0  0  0
   31.3946   13.5283    7.2926 H   0  0  0  0  0  0  0  0  0  0  0  0
   34.3188   12.5635    5.6002 H   0  0  0  0  0  0  0  0  0  0  0  0
   36.2143   14.1479    7.6776 H   0  0  0  0  0  0  0  0  0  0  0  0
   34.9276   15.3705    7.5245 H   0  0  0  0  0  0  0  0  0  0  0  0
   35.6436   15.9657    5.3692 H   0  0  0  0  0  0  0  0  0  0  0  0
  1  2  1  0
  2  3  2  0
  3  4  1  0
  4  5  2  0
  5  6  1  0
  6  7  1  0
  7  8  1  0
  8  9  2  0
  8 10  1  0
 10 11  1  0
 10 12  1  0
  5 13  1  0
 13 14  2  0
 14 15  1  0
 15 16  1  0
 16 17  2  0
 16 18  1  0
 18 19  1  0
 14  2  1  0
  1 20  1  0
  1 21  1  0
  1 22  1  0
  3 23  1  0
  4 24  1  0
  7 25  1  0
  7 26  1  0
 11 27  1  0
 11 28  1  0
 11 29  1  0
 12 30  1  0
 12 31  1  0
 12 32  1  0
 13 33  1  0
 15 34  1  0
 18 35  1  0
 18 36  1  0
 19 37  1  0
M  END
