LIG
     RDKit          3D

 31 31  0  0  0  0  0  0  0  0999 V2000
   34.3251    8.7667    5.1879 C   0  0  0  0  0  0  0  0  0  0  0  0
   33.2987    9.5535    5.9357 C   0  0  0  0  0  0  0  0  0  0  0  0
   33.3577   10.9352    5.8503 C   0  0  0  0  0  0  0  0  0  0  0  0
   32.5325   11.7215    6.6447 C   0  0  0  0  0  0  0  0  0  0  0  0
   32.9194   13.0799    6.7364 N   0  0  0  0  0  0  0  0  0  0  0  0
   33.7607   13.4098    7.8067 C   0  0  0  0  0  0  0  0  0  0  0  0
   33.7083   12.9090    8.9293 O   0  0  0  0  0  0  0  0  0  0  0  0
   34.8078   14.4687    7.4323 C   0  0  0  0  0  0  0  0  0  0  0  0
   34.7058   14.8791    6.0703 O   0  0  0  0  0  0  0  0  0  0  0  0
   31.5319   11.1289    7.4352 C   0  0  0  0  0  0  0  0  0  0  0  0
   30.5315   11.8596    8.1017 N   0  0  0  0  0  0  0  0  0  0  0  0
   29.7803   12.7928    7.4064 C   0  0  0  0  0  0  0  0  0  0  0  0
   29.9510   13.1176    6.2327 O   0  0  0  0  0  0  0  0  0  0  0  0
   28.6170   13.3199    8.1937 C   0  0  0  0  0  0  0  0  0  0  0  0
   28.5761   14.7687    8.1296 C   0  0  0  0  0  0  0  0  0  0  0  0
   28.5031   15.9234    8.1555 N   0  0  0  0  0  0  0  0  0  0  0  0
   31.4672    9.7430    7.5337 C   0  0  0  0  0  0  0  0  0  0  0  0
   32.3507    8.9678    6.7904 C   0  0  0  0  0  0  0  0  0  0  0  0
   33.8849    8.1984    4.3704 H   0  0  0  0  0  0  0  0  0  0  0  0
   34.8884    8.1265    5.8644 H   0  0  0  0  0  0  0  0  0  0  0  0
   35.0676    9.4271    4.7232 H   0  0  0  0  0  0  0  0  0  0  0  0
   34.1381   11.4038    5.2535 H   0  0  0  0  0  0  0  0  0  0  0  0
   33.3520   13.4530    5.8892 H   0  0  0  0  0  0  0  0  0  0  0  0
   34.6479   15.3268    8.0842 H   0  0  0  0  0  0  0  0  0  0  0  0
   35.8055   14.0535    7.5954 H   0  0  0  0  0  0  0  0  0  0  0  0
   35.0109   15.8140    6.0259 H   0  0  0  0  0  0  0  0  0  0  0  0
   30.0590   11.3816    8.8664 H   0  0  0  0  0  0  0  0  0  0  0  0
   27.7090   12.8857    7.7641 H   0  0  0  0  0  0  0  0  0  0  0  0
   28.6655   13.0094    9.2378 H   0  0  0  0  0  0  0  0  0  0  0  0
   30.7311    9.2439    8.1587 H   0  0  0  0  0  0  0  0  0  0  0  0
   32.3126    7.8954    6.9228 H   0  0  0  0  0  0  0  0  0  0  0  0
  1  2  1  0
  2  3  2  0
  3  4  1  0
  4  5  1  0
  5  6  1  0
  6  7  2  0
  6  8  1  0
  8  9  1  0
  4 10  2  0
 10 11  1  0
 11 12  1  0
 12 13  2  0
 12 14  1  0
 14 15  1  0
 15 16  3  0
 10 17  1  0
 17 18  2  0
 18  2  1  0
  1 19  1  0
  1 20  1  0
  1 21  1  0
  3 22  1  0
  5 23  1  0
  8 24  1  0
  8 25  1  0
  9 26  1  0
 11 27  1  0
 14 28  1  0
 14 29  1  0
 17 30  1  0
 18 31  1  0
M  END
