LIG
     RDKit          3D

 41 42  0  0  0  0  0  0  0  0999 V2000
   35.4886    8.1254    3.4103 C   0  0  0  0  0  0  0  0  0  0  0  0
   35.8597    9.5783    3.4634 C   0  0  0  0  0  0  0  0  0  0  0  0
   36.9162    9.9760    2.9642 O   0  0  0  0  0  0  0  0  0  0  0  0
   35.0343   10.4975    4.0254 N   0  0  0  0  0  0  0  0  0  0  0  0
   33.9689   10.3861    4.9259 C   0  0  0  0  0  0  0  0  0  0  0  0
   33.6486    9.2506    5.6484 C   0  0  0  0  0  0  0  0  0  0  0  0
   32.5844    9.2495    6.5536 C   0  0  0  0  0  0  0  0  0  0  0  0
   31.8682   10.4139    6.8183 C   0  0  0  0  0  0  0  0  0  0  0  0
   30.7608   10.3484    7.8223 C   0  0  0  0  0  0  0  0  0  0  0  0
   32.2531   11.5746    6.1500 C   0  0  0  0  0  0  0  0  0  0  0  0
   31.6963   12.8062    6.3544 O   0  0  0  0  0  0  0  0  0  0  0  0
   32.0530   13.2962    7.6299 C   0  0  0  0  0  0  0  0  0  0  0  0
   33.5231   13.4124    8.0653 C   0  0  0  0  0  0  0  0  0  0  0  0
   33.7758   13.0886    9.2322 O   0  0  0  0  0  0  0  0  0  0  0  0
   34.5229   13.8295    7.2075 N   0  0  0  0  0  0  0  0  0  0  0  0
   35.8808   13.8916    7.7383 C   0  0  0  0  0  0  0  0  0  0  0  0
   36.8785   13.5035    6.6451 C   0  0  0  0  0  0  0  0  0  0  0  0
   36.8110   14.4399    5.5576 O   0  0  0  0  0  0  0  0  0  0  0  0
   35.5019   14.4247    4.9739 C   0  0  0  0  0  0  0  0  0  0  0  0
   34.3791   14.6433    6.0035 C   0  0  0  0  0  0  0  0  0  0  0  0
   33.2352   11.5371    5.1634 C   0  0  0  0  0  0  0  0  0  0  0  0
   34.4106    7.9910    3.2976 H   0  0  0  0  0  0  0  0  0  0  0  0
   35.8644    7.6102    4.2967 H   0  0  0  0  0  0  0  0  0  0  0  0
   35.9574    7.6769    2.5282 H   0  0  0  0  0  0  0  0  0  0  0  0
   35.3515   11.4366    3.8198 H   0  0  0  0  0  0  0  0  0  0  0  0
   34.2388    8.3515    5.5730 H   0  0  0  0  0  0  0  0  0  0  0  0
   32.3395    8.3322    7.0880 H   0  0  0  0  0  0  0  0  0  0  0  0
   30.2705    9.3691    7.8034 H   0  0  0  0  0  0  0  0  0  0  0  0
   29.9930   11.1009    7.6179 H   0  0  0  0  0  0  0  0  0  0  0  0
   31.1425   10.5020    8.8283 H   0  0  0  0  0  0  0  0  0  0  0  0
   31.5855   14.2650    7.7696 H   0  0  0  0  0  0  0  0  0  0  0  0
   31.5488   12.6992    8.3973 H   0  0  0  0  0  0  0  0  0  0  0  0
   36.0283   14.9260    8.0603 H   0  0  0  0  0  0  0  0  0  0  0  0
   36.0132   13.2759    8.6294 H   0  0  0  0  0  0  0  0  0  0  0  0
   37.9001   13.5119    7.0363 H   0  0  0  0  0  0  0  0  0  0  0  0
   36.6842   12.5041    6.2439 H   0  0  0  0  0  0  0  0  0  0  0  0
   35.3821   13.4717    4.4563 H   0  0  0  0  0  0  0  0  0  0  0  0
   35.4653   15.2088    4.2112 H   0  0  0  0  0  0  0  0  0  0  0  0
   33.3963   14.5190    5.5486 H   0  0  0  0  0  0  0  0  0  0  0  0
   34.4671   15.6676    6.3622 H   0  0  0  0  0  0  0  0  0  0  0  0
   33.4280   12.4338    4.5897 H   0  0  0  0  0  0  0  0  0  0  0  0
  1  2  1  0
  2  3  2  0
  2  4  1  0
  4  5  1  0
  5  6  2  0
  6  7  1  0
  7  8  2  0
  8  9  1  0
  8 10  1  0
 10 11  1  0
 11 12  1  0
 12 13  1  0
 13 14  2  0
 13 15  1  0
 15 16  1  0
 16 17  1  0
 17 18  1  0
 18 19  1  0
 19 20  1  0
 10 21  2  0
 21  5  1  0
 20 15  1  0
  1 22  1  0
  1 23  1  0
  1 24  1  0
  4 25  1  0
  6 26  1  0
  7 27  1  0
  9 28  1  0
  9 29  1  0
  9 30  1  0
 12 31  1  0
 12 32  1  0
 16 33  1  0
 16 34  1  0
 17 35  1  0
 17 36  1  0
 19 37  1  0
 19 38  1  0
 20 39  1  0
 20 40  1  0
 21 41  1  0
M  END
