LIG
     RDKit          3D

 44 44  0  0  0  0  0  0  0  0999 V2000
   30.0510   12.3330    8.4300 C   0  0  0  0  0  0  0  0  0  0  0  0
   29.3000   13.3530    7.8990 C   0  0  0  0  0  0  0  0  0  0  0  0
   28.5340   14.0390    8.5970 O   0  0  0  0  0  0  0  0  0  0  0  0
   30.4633   11.5164    8.1745 N   0  0  0  0  0  0  0  0  0  0  0  0
   31.2880    9.8340    6.6350 C   0  0  0  0  0  0  0  0  0  0  0  0
   31.7330   10.8470    5.8070 C   0  0  0  0  0  0  0  0  0  0  0  0
   32.4850   12.2111    8.0110 C   0  0  0  0  0  0  0  0  0  0  0  0
   34.9080   14.6080    8.8210 N   0  0  0  0  0  0  0  0  0  0  0  0
   33.5770   13.9020    8.2740 S   0  0  0  0  0  0  0  0  0  0  0  0
   34.0500   13.6360    6.5860 C   0  0  0  0  0  0  0  0  0  0  0  0
   33.4410   12.6200    8.8870 O   0  0  0  0  0  0  0  0  0  0  0  0
   32.5040   14.8410    8.3200 O   0  0  0  0  0  0  0  0  0  0  0  0
   31.3810   12.1530    6.0670 C   0  0  0  0  0  0  0  0  0  0  0  0
   30.5900   12.4580    7.1610 C   0  0  0  0  0  0  0  0  0  0  0  0
   30.1520   11.4340    7.9910 C   0  0  0  0  0  0  0  0  0  0  0  0
   30.1066   12.1519    8.7790 O   0  0  0  0  0  0  0  0  0  0  0  0
   30.6116   13.4805    8.7709 C   0  0  0  0  0  0  0  0  0  0  0  0
   29.9260   13.8300    9.9860 C   0  0  0  0  0  0  0  0  0  0  0  0
   31.1030   13.5010    9.9720 O   0  0  0  0  0  0  0  0  0  0  0  0
   29.5320   15.0110   10.4940 N   0  0  0  0  0  0  0  0  0  0  0  0
   30.5000   15.9370   11.0760 C   0  0  0  0  0  0  0  0  0  0  0  0
   28.1410   15.4480   10.5470 C   0  0  0  0  0  0  0  0  0  0  0  0
   30.4800   10.1020    7.7350 C   0  0  0  0  0  0  0  0  0  0  0  0
   29.9390    8.9850    8.5900 Br  0  0  0  0  0  0  0  0  0  0  0  0
   31.1488   12.5004    8.3033 H   0  0  0  0  0  0  0  0  0  0  0  0
   30.7461   12.6464    9.2506 H   0  0  0  0  0  0  0  0  0  0  0  0
   30.6902   11.8301    7.6644 H   0  0  0  0  0  0  0  0  0  0  0  0
   30.4589   10.9983    9.0493 H   0  0  0  0  0  0  0  0  0  0  0  0
   31.6631   12.4581    8.6901 H   0  0  0  0  0  0  0  0  0  0  0  0
   33.1851   11.5217    8.4907 H   0  0  0  0  0  0  0  0  0  0  0  0
   35.7754   14.2700    8.3750 H   0  0  0  0  0  0  0  0  0  0  0  0
   34.4855   14.5512    6.1776 H   0  0  0  0  0  0  0  0  0  0  0  0
   35.1194   13.8352    6.4778 H   0  0  0  0  0  0  0  0  0  0  0  0
   34.7973   12.8374    6.5662 H   0  0  0  0  0  0  0  0  0  0  0  0
   31.6758   12.9661    5.4159 H   0  0  0  0  0  0  0  0  0  0  0  0
   30.3149   13.4914    7.3215 H   0  0  0  0  0  0  0  0  0  0  0  0
   31.7079   13.4968    8.7654 H   0  0  0  0  0  0  0  0  0  0  0  0
   30.2365   14.0158    7.8898 H   0  0  0  0  0  0  0  0  0  0  0  0
   29.9749   16.8290   11.4263 H   0  0  0  0  0  0  0  0  0  0  0  0
   30.5045   16.8965   10.5548 H   0  0  0  0  0  0  0  0  0  0  0  0
   31.2233   16.2118   10.3039 H   0  0  0  0  0  0  0  0  0  0  0  0
   27.8302   15.7844    9.5541 H   0  0  0  0  0  0  0  0  0  0  0  0
   27.5221   14.6029   10.8590 H   0  0  0  0  0  0  0  0  0  0  0  0
   27.5099   14.8598    9.8801 H   0  0  0  0  0  0  0  0  0  0  0  0
  1  2  1  0
  2  3  2  0
  2  4  1  0
  4  5  1  0
  5  6  4  0
  6  7  1  0
  7  8  1  0
  8  9  1  0
  9 10  1  0
  9 11  2  0
  9 12  2  0
  6 13  4  0
 13 14  4  0
 14 15  4  0
 15 16  1  0
 16 17  1  0
 17 18  1  0
 18 19  2  0
 18 20  1  0
 20 21  1  0
 20 22  1  0
 15 23  4  0
 23 24  1  0
 23  5  4  0
  1 25  1  0
  1 26  1  0
  1 27  1  0
  4 28  1  0
  7 29  1  0
  7 30  1  0
  8 31  1  0
 10 32  1  0
 10 33  1  0
 10 34  1  0
 13 35  1  0
 14 36  1  0
 17 37  1  0
 17 38  1  0
 21 39  1  0
 21 40  1  0
 21 41  1  0
 22 42  1  0
 22 43  1  0
 22 44  1  0
M  END
