LIG
     RDKit          3D

 34 34  0  0  0  0  0  0  0  0999 V2000
   30.8050   15.6747   11.3683 C   0  0  0  0  0  0  0  0  0  0  0  0
   29.8036   14.9789   10.5764 N   0  0  0  0  0  0  0  0  0  0  0  0
   28.5703   14.6583   11.2381 C   0  0  0  0  0  0  0  0  0  0  0  0
   30.2972   14.1089    9.6105 C   0  0  0  0  0  0  0  0  0  0  0  0
   31.5152   14.0219    9.4672 O   0  0  0  0  0  0  0  0  0  0  0  0
   29.2931   13.3786    8.6764 C   0  0  0  0  0  0  0  0  0  0  0  0
   29.4339   11.9923    8.4251 O   0  0  0  0  0  0  0  0  0  0  0  0
   30.5335   11.5398    7.7671 C   0  0  0  0  0  0  0  0  0  0  0  0
   30.7044   10.1565    7.7210 C   0  0  0  0  0  0  0  0  0  0  0  0
   31.7743    9.5922    7.0192 C   0  0  0  0  0  0  0  0  0  0  0  0
   32.7341   10.4091    6.4290 C   0  0  0  0  0  0  0  0  0  0  0  0
   32.6335   11.7795    6.6170 C   0  0  0  0  0  0  0  0  0  0  0  0
   33.7338   12.6192    6.3881 N   0  0  0  0  0  0  0  0  0  0  0  0
   34.2832   13.3029    7.4758 C   0  0  0  0  0  0  0  0  0  0  0  0
   33.9920   13.0710    8.6532 O   0  0  0  0  0  0  0  0  0  0  0  0
   35.3283   14.3469    7.1546 C   0  0  0  0  0  0  0  0  0  0  0  0
   35.5905   14.6174    5.3850 S   0  0  0  0  0  0  0  0  0  0  0  0
   31.4911   12.3430    7.1789 C   0  0  0  0  0  0  0  0  0  0  0  0
   31.1740   14.9927   12.1241 H   0  0  0  0  0  0  0  0  0  0  0  0
   31.6434   16.0071   10.7511 H   0  0  0  0  0  0  0  0  0  0  0  0
   30.3782   16.5485   11.8604 H   0  0  0  0  0  0  0  0  0  0  0  0
   28.5045   15.2019   12.1811 H   0  0  0  0  0  0  0  0  0  0  0  0
   28.5050   13.5995   11.4642 H   0  0  0  0  0  0  0  0  0  0  0  0
   27.7410   14.9209   10.5795 H   0  0  0  0  0  0  0  0  0  0  0  0
   29.2768   13.9298    7.7263 H   0  0  0  0  0  0  0  0  0  0  0  0
   28.2794   13.4946    9.0637 H   0  0  0  0  0  0  0  0  0  0  0  0
   29.9855    9.5011    8.2073 H   0  0  0  0  0  0  0  0  0  0  0  0
   31.8827    8.5108    6.9889 H   0  0  0  0  0  0  0  0  0  0  0  0
   33.6077    9.9622    5.9646 H   0  0  0  0  0  0  0  0  0  0  0  0
   34.4587   12.2969    5.7548 H   0  0  0  0  0  0  0  0  0  0  0  0
   35.0040   15.2850    7.6060 H   0  0  0  0  0  0  0  0  0  0  0  0
   36.2722   14.0337    7.6082 H   0  0  0  0  0  0  0  0  0  0  0  0
   35.5727   15.9659    5.4313 H   0  0  0  0  0  0  0  0  0  0  0  0
   31.4333   13.4219    7.2127 H   0  0  0  0  0  0  0  0  0  0  0  0
  1  2  1  0
  2  3  1  0
  2  4  1  0
  4  5  2  0
  4  6  1  0
  6  7  1  0
  7  8  1  0
  8  9  2  0
  9 10  1  0
 10 11  2  0
 11 12  1  0
 12 13  1  0
 13 14  1  0
 14 15  2  0
 14 16  1  0
 16 17  1  0
 12 18  2  0
 18  8  1  0
  1 19  1  0
  1 20  1  0
  1 21  1  0
  3 22  1  0
  3 23  1  0
  3 24  1  0
  6 25  1  0
  6 26  1  0
  9 27  1  0
 10 28  1  0
 11 29  1  0
 13 30  1  0
 16 31  1  0
 16 32  1  0
 17 33  1  0
 18 34  1  0
M  END
