LIG
     RDKit          3D

 48 50  0  0  0  0  0  0  0  0999 V2000
   34.9812    9.0789    4.7792 C   0  0  0  0  0  0  0  0  0  0  0  0
   34.1509   10.1059    5.4700 C   0  0  0  0  0  0  0  0  0  0  0  0
   32.9962    9.6578    6.0776 C   0  0  0  0  0  0  0  0  0  0  0  0
   32.1193   10.5979    6.5798 C   0  0  0  0  0  0  0  0  0  0  0  0
   30.7358   10.1705    6.8275 C   0  0  0  0  0  0  0  0  0  0  0  0
   32.4823   11.9418    6.7132 C   0  0  0  0  0  0  0  0  0  0  0  0
   31.6022   12.7571    7.3023 O   0  0  0  0  0  0  0  0  0  0  0  0
   31.5695   14.1421    7.2265 C   0  0  0  0  0  0  0  0  0  0  0  0
   31.2304   14.6985    5.8511 C   0  0  0  0  0  0  0  0  0  0  0  0
   31.0838   16.1894    6.0885 C   0  0  0  0  0  0  0  0  0  0  0  0
   31.9166   16.4840    7.2374 N   0  0  0  0  0  0  0  0  0  0  0  0
   31.7487   17.7381    7.9511 C   0  0  0  0  0  0  0  0  0  0  0  0
   32.2564   15.3123    7.9473 C   0  0  0  0  0  0  0  0  0  0  0  0
   32.8209   15.2647    9.0285 O   0  0  0  0  0  0  0  0  0  0  0  0
   33.6983   12.3435    6.2854 C   0  0  0  0  0  0  0  0  0  0  0  0
   34.3831   11.4934    5.4355 C   0  0  0  0  0  0  0  0  0  0  0  0
   35.0788   12.0745    4.3605 N   0  0  0  0  0  0  0  0  0  0  0  0
   34.8821   13.4028    3.9806 C   0  0  0  0  0  0  0  0  0  0  0  0
   34.5444   14.3467    4.6923 O   0  0  0  0  0  0  0  0  0  0  0  0
   35.1070   13.6224    2.4899 C   0  0  0  0  0  0  0  0  0  0  0  0
   33.9932   14.4943    1.9168 C   0  0  0  0  0  0  0  0  0  0  0  0
   33.8464   13.9581    0.5201 C   0  0  0  0  0  0  0  0  0  0  0  0
   34.0986   12.4856    0.7340 C   0  0  0  0  0  0  0  0  0  0  0  0
   35.1058   12.3891    1.7478 O   0  0  0  0  0  0  0  0  0  0  0  0
   34.6191    8.9218    3.7582 H   0  0  0  0  0  0  0  0  0  0  0  0
   34.9637    8.1218    5.3124 H   0  0  0  0  0  0  0  0  0  0  0  0
   36.0286    9.3956    4.7346 H   0  0  0  0  0  0  0  0  0  0  0  0
   32.7227    8.6061    6.0402 H   0  0  0  0  0  0  0  0  0  0  0  0
   30.6177    9.0884    6.7992 H   0  0  0  0  0  0  0  0  0  0  0  0
   30.3491   10.5557    7.7551 H   0  0  0  0  0  0  0  0  0  0  0  0
   30.2142   10.6092    5.9839 H   0  0  0  0  0  0  0  0  0  0  0  0
   30.6549   14.2281    7.7865 H   0  0  0  0  0  0  0  0  0  0  0  0
   30.3347   14.2559    5.4048 H   0  0  0  0  0  0  0  0  0  0  0  0
   32.0486   14.5077    5.1512 H   0  0  0  0  0  0  0  0  0  0  0  0
   30.0445   16.4665    6.2846 H   0  0  0  0  0  0  0  0  0  0  0  0
   31.4335   16.7764    5.2336 H   0  0  0  0  0  0  0  0  0  0  0  0
   32.1418   18.5376    7.3163 H   0  0  0  0  0  0  0  0  0  0  0  0
   30.6958   17.9472    8.1504 H   0  0  0  0  0  0  0  0  0  0  0  0
   32.3014   17.7263    8.8943 H   0  0  0  0  0  0  0  0  0  0  0  0
   34.0135   13.3590    6.4770 H   0  0  0  0  0  0  0  0  0  0  0  0
   35.3607   11.4551    3.6062 H   0  0  0  0  0  0  0  0  0  0  0  0
   36.0892   14.0881    2.3538 H   0  0  0  0  0  0  0  0  0  0  0  0
   33.0529   14.3583    2.4660 H   0  0  0  0  0  0  0  0  0  0  0  0
   34.2404   15.5598    1.9444 H   0  0  0  0  0  0  0  0  0  0  0  0
   34.6254   14.3833   -0.1235 H   0  0  0  0  0  0  0  0  0  0  0  0
   32.8729   14.1656    0.0687 H   0  0  0  0  0  0  0  0  0  0  0  0
   33.2005   11.9762    1.1009 H   0  0  0  0  0  0  0  0  0  0  0  0
   34.4395   11.9797   -0.1734 H   0  0  0  0  0  0  0  0  0  0  0  0
  1  2  1  0
  2  3  2  0
  3  4  1  0
  4  5  1  0
  4  6  2  0
  6  7  1  0
  7  8  1  0
  8  9  1  0
  9 10  1  0
 10 11  1  0
 11 12  1  0
 11 13  1  0
 13 14  2  0
  6 15  1  0
 15 16  2  0
 16 17  1  0
 17 18  1  0
 18 19  2  0
 18 20  1  0
 20 21  1  0
 21 22  1  0
 22 23  1  0
 23 24  1  0
 16  2  1  0
 24 20  1  0
 13  8  1  0
  1 25  1  0
  1 26  1  0
  1 27  1  0
  3 28  1  0
  5 29  1  0
  5 30  1  0
  5 31  1  0
  8 32  1  0
  9 33  1  0
  9 34  1  0
 10 35  1  0
 10 36  1  0
 12 37  1  0
 12 38  1  0
 12 39  1  0
 15 40  1  0
 17 41  1  0
 20 42  1  0
 21 43  1  0
 21 44  1  0
 22 45  1  0
 22 46  1  0
 23 47  1  0
 23 48  1  0
M  END
