LIG
     RDKit          3D

 34 34  0  0  0  0  0  0  0  0999 V2000
   30.9125   15.7914   11.3640 C   0  0  0  0  0  0  0  0  0  0  0  0
   29.8694   15.0664   10.6540 N   0  0  0  0  0  0  0  0  0  0  0  0
   28.7278   14.6958   11.4452 C   0  0  0  0  0  0  0  0  0  0  0  0
   30.3290   14.1435    9.7147 C   0  0  0  0  0  0  0  0  0  0  0  0
   31.5416   13.9961    9.5777 O   0  0  0  0  0  0  0  0  0  0  0  0
   29.2908   13.4368    8.7988 C   0  0  0  0  0  0  0  0  0  0  0  0
   29.4243   12.0593    8.4951 O   0  0  0  0  0  0  0  0  0  0  0  0
   30.5100   11.6250    7.8049 C   0  0  0  0  0  0  0  0  0  0  0  0
   30.6814   10.2410    7.7235 C   0  0  0  0  0  0  0  0  0  0  0  0
   31.7018    9.6974    6.9382 C   0  0  0  0  0  0  0  0  0  0  0  0
   32.5948   10.5428    6.3008 C   0  0  0  0  0  0  0  0  0  0  0  0
   33.5372   10.0418    5.4948 F   0  0  0  0  0  0  0  0  0  0  0  0
   32.5471   11.9023    6.5594 C   0  0  0  0  0  0  0  0  0  0  0  0
   33.6593   12.7261    6.3116 N   0  0  0  0  0  0  0  0  0  0  0  0
   34.2784   13.3346    7.4073 C   0  0  0  0  0  0  0  0  0  0  0  0
   33.9877   13.0920    8.5826 O   0  0  0  0  0  0  0  0  0  0  0  0
   35.3929   14.3069    7.0960 C   0  0  0  0  0  0  0  0  0  0  0  0
   35.6225   14.6309    5.3314 S   0  0  0  0  0  0  0  0  0  0  0  0
   31.4475   12.4490    7.2094 C   0  0  0  0  0  0  0  0  0  0  0  0
   31.3484   15.1367   12.1089 H   0  0  0  0  0  0  0  0  0  0  0  0
   31.7018   16.1186   10.6835 H   0  0  0  0  0  0  0  0  0  0  0  0
   30.5038   16.6729   11.8598 H   0  0  0  0  0  0  0  0  0  0  0  0
   28.6283   15.3712   12.2950 H   0  0  0  0  0  0  0  0  0  0  0  0
   28.8607   13.6962   11.8425 H   0  0  0  0  0  0  0  0  0  0  0  0
   27.8250   14.7269   10.8351 H   0  0  0  0  0  0  0  0  0  0  0  0
   29.2363   14.0165    7.8673 H   0  0  0  0  0  0  0  0  0  0  0  0
   28.2946   13.5333    9.2318 H   0  0  0  0  0  0  0  0  0  0  0  0
   29.9898    9.5728    8.2320 H   0  0  0  0  0  0  0  0  0  0  0  0
   31.8106    8.6222    6.8455 H   0  0  0  0  0  0  0  0  0  0  0  0
   34.3474   12.3826    5.6449 H   0  0  0  0  0  0  0  0  0  0  0  0
   36.3229   13.8996    7.5021 H   0  0  0  0  0  0  0  0  0  0  0  0
   35.1622   15.2472    7.5980 H   0  0  0  0  0  0  0  0  0  0  0  0
   35.5329   15.9751    5.4062 H   0  0  0  0  0  0  0  0  0  0  0  0
   31.4024   13.5255    7.2936 H   0  0  0  0  0  0  0  0  0  0  0  0
  1  2  1  0
  2  3  1  0
  2  4  1  0
  4  5  2  0
  4  6  1  0
  6  7  1  0
  7  8  1  0
  8  9  2  0
  9 10  1  0
 10 11  2  0
 11 12  1  0
 11 13  1  0
 13 14  1  0
 14 15  1  0
 15 16  2  0
 15 17  1  0
 17 18  1  0
 13 19  2  0
 19  8  1  0
  1 20  1  0
  1 21  1  0
  1 22  1  0
  3 23  1  0
  3 24  1  0
  3 25  1  0
  6 26  1  0
  6 27  1  0
  9 28  1  0
 10 29  1  0
 14 30  1  0
 17 31  1  0
 17 32  1  0
 18 33  1  0
 19 34  1  0
M  END
