LIG
     RDKit          3D

 42 44  0  0  0  0  0  0  0  0999 V2000
   27.7217   15.6789    9.0539 C   0  0  0  0  0  0  0  0  0  0  0  0
   28.4189   14.5741    8.5254 N   0  0  0  0  0  0  0  0  0  0  0  0
   28.1424   14.0801    7.2094 C   0  0  0  0  0  0  0  0  0  0  0  0
   29.0636   12.9026    7.1198 C   0  0  0  0  0  0  0  0  0  0  0  0
   30.3052   13.3985    7.8587 C   0  0  0  0  0  0  0  0  0  0  0  0
   30.9188   12.3724    8.5973 O   0  0  0  0  0  0  0  0  0  0  0  0
   31.5531   11.4953    7.7818 C   0  0  0  0  0  0  0  0  0  0  0  0
   31.2421   10.1510    7.8861 C   0  0  0  0  0  0  0  0  0  0  0  0
   31.9170    9.2591    7.0695 C   0  0  0  0  0  0  0  0  0  0  0  0
   32.8059    9.7400    6.1038 C   0  0  0  0  0  0  0  0  0  0  0  0
   33.3920    8.8563    5.2941 F   0  0  0  0  0  0  0  0  0  0  0  0
   33.0565   11.1044    5.9564 C   0  0  0  0  0  0  0  0  0  0  0  0
   33.7856   11.6340    4.8700 N   0  0  0  0  0  0  0  0  0  0  0  0
   33.7042   12.9634    4.4516 C   0  0  0  0  0  0  0  0  0  0  0  0
   33.0060   13.8413    4.9650 O   0  0  0  0  0  0  0  0  0  0  0  0
   34.5817   13.2711    3.2385 C   0  0  0  0  0  0  0  0  0  0  0  0
   33.9859   14.3926    2.3982 C   0  0  0  0  0  0  0  0  0  0  0  0
   34.5321   14.0857    1.0305 C   0  0  0  0  0  0  0  0  0  0  0  0
   34.5172   12.5742    1.0175 C   0  0  0  0  0  0  0  0  0  0  0  0
   34.7174   12.1366    2.3703 O   0  0  0  0  0  0  0  0  0  0  0  0
   32.5167   11.9519    6.8995 C   0  0  0  0  0  0  0  0  0  0  0  0
   29.7779   14.4412    8.8145 C   0  0  0  0  0  0  0  0  0  0  0  0
   30.4216   15.0962    9.6233 O   0  0  0  0  0  0  0  0  0  0  0  0
   27.7541   15.5459   10.1304 H   0  0  0  0  0  0  0  0  0  0  0  0
   28.2112   16.5935    8.7188 H   0  0  0  0  0  0  0  0  0  0  0  0
   26.6887   15.6436    8.7315 H   0  0  0  0  0  0  0  0  0  0  0  0
   27.0956   13.7949    7.1017 H   0  0  0  0  0  0  0  0  0  0  0  0
   28.4089   14.8461    6.4755 H   0  0  0  0  0  0  0  0  0  0  0  0
   29.2793   12.6217    6.0851 H   0  0  0  0  0  0  0  0  0  0  0  0
   28.6315   12.0277    7.6163 H   0  0  0  0  0  0  0  0  0  0  0  0
   30.9800   13.9136    7.1767 H   0  0  0  0  0  0  0  0  0  0  0  0
   30.5139    9.7973    8.6102 H   0  0  0  0  0  0  0  0  0  0  0  0
   31.7441    8.1920    7.1664 H   0  0  0  0  0  0  0  0  0  0  0  0
   34.2382   10.9825    4.2304 H   0  0  0  0  0  0  0  0  0  0  0  0
   35.5818   13.5391    3.5984 H   0  0  0  0  0  0  0  0  0  0  0  0
   34.2640   15.3861    2.7624 H   0  0  0  0  0  0  0  0  0  0  0  0
   32.8902   14.3373    2.3777 H   0  0  0  0  0  0  0  0  0  0  0  0
   35.5639   14.4488    0.9544 H   0  0  0  0  0  0  0  0  0  0  0  0
   33.9539   14.5268    0.2145 H   0  0  0  0  0  0  0  0  0  0  0  0
   33.5458   12.1915    0.6864 H   0  0  0  0  0  0  0  0  0  0  0  0
   35.2947   12.1512    0.3753 H   0  0  0  0  0  0  0  0  0  0  0  0
   32.8326   12.9868    6.9600 H   0  0  0  0  0  0  0  0  0  0  0  0
  1  2  1  0
  2  3  1  0
  3  4  1  0
  4  5  1  0
  5  6  1  0
  6  7  1  0
  7  8  2  0
  8  9  1  0
  9 10  2  0
 10 11  1  0
 10 12  1  0
 12 13  1  0
 13 14  1  0
 14 15  2  0
 14 16  1  0
 16 17  1  0
 17 18  1  0
 18 19  1  0
 19 20  1  0
 12 21  2  0
  5 22  1  0
 22 23  2  0
 22  2  1  0
 21  7  1  0
 20 16  1  0
  1 24  1  0
  1 25  1  0
  1 26  1  0
  3 27  1  0
  3 28  1  0
  4 29  1  0
  4 30  1  0
  5 31  1  0
  8 32  1  0
  9 33  1  0
 13 34  1  0
 16 35  1  0
 17 36  1  0
 17 37  1  0
 18 38  1  0
 18 39  1  0
 19 40  1  0
 19 41  1  0
 21 42  1  0
M  END
