LIG
     RDKit          3D

 49 51  0  0  0  0  0  0  0  0999 V2000
    1.0229   -4.3384    0.3182 C   0  0  0  0  0  0  0  0  0  0  0  0
   -0.1163   -3.6912   -0.4171 C   0  0  0  0  0  0  0  0  0  0  0  0
   -0.8560   -4.4231   -1.3583 C   0  0  0  0  0  0  0  0  0  0  0  0
   -1.9140   -3.8299   -2.0581 C   0  0  0  0  0  0  0  0  0  0  0  0
   -2.2481   -2.4972   -1.8247 C   0  0  0  0  0  0  0  0  0  0  0  0
   -1.5228   -1.7642   -0.8866 C   0  0  0  0  0  0  0  0  0  0  0  0
   -1.8285   -0.4470   -0.6721 O   0  0  0  0  0  0  0  0  0  0  0  0
   -2.9989   -0.3171    0.1411 C   0  0  0  0  0  0  0  0  0  0  0  0
   -2.6291    0.2658    1.5063 C   0  0  0  0  0  0  0  0  0  0  0  0
   -2.5876    1.7611    1.2469 C   0  0  0  0  0  0  0  0  0  0  0  0
   -3.6421    1.9508    0.2791 N   0  0  0  0  0  0  0  0  0  0  0  0
   -4.0351    3.2633   -0.1733 C   0  0  0  0  0  0  0  0  0  0  0  0
   -3.8549    0.7927   -0.4666 C   0  0  0  0  0  0  0  0  0  0  0  0
   -4.5618    0.6879   -1.4577 O   0  0  0  0  0  0  0  0  0  0  0  0
   -0.4345   -2.3415   -0.2182 C   0  0  0  0  0  0  0  0  0  0  0  0
    0.2808   -1.6108    0.6968 O   0  0  0  0  0  0  0  0  0  0  0  0
    1.1912   -0.7272    0.0397 C   0  0  0  0  0  0  0  0  0  0  0  0
    1.5345    0.4827    0.9222 C   0  0  0  0  0  0  0  0  0  0  0  0
    0.8837    0.7679    1.9314 O   0  0  0  0  0  0  0  0  0  0  0  0
    2.6196    1.2555    0.5220 N   0  0  0  0  0  0  0  0  0  0  0  0
    3.4104    1.0338   -0.6922 C   0  0  0  0  0  0  0  0  0  0  0  0
    4.1501    2.3085   -1.1150 C   0  0  0  0  0  0  0  0  0  0  0  0
    5.0122    2.8350   -0.0996 O   0  0  0  0  0  0  0  0  0  0  0  0
    4.5623    2.5905    1.2410 C   0  0  0  0  0  0  0  0  0  0  0  0
    3.0507    2.3786    1.3593 C   0  0  0  0  0  0  0  0  0  0  0  0
    0.9826   -4.0959    1.3868 H   0  0  0  0  0  0  0  0  0  0  0  0
    0.9837   -5.4297    0.2323 H   0  0  0  0  0  0  0  0  0  0  0  0
    1.9786   -3.9961   -0.0964 H   0  0  0  0  0  0  0  0  0  0  0  0
   -0.6174   -5.4675   -1.5514 H   0  0  0  0  0  0  0  0  0  0  0  0
   -2.4761   -4.4088   -2.7872 H   0  0  0  0  0  0  0  0  0  0  0  0
   -3.0648   -2.0325   -2.3721 H   0  0  0  0  0  0  0  0  0  0  0  0
   -3.5922   -1.2363    0.2447 H   0  0  0  0  0  0  0  0  0  0  0  0
   -3.4239    0.0415    2.2288 H   0  0  0  0  0  0  0  0  0  0  0  0
   -1.6830   -0.1035    1.9039 H   0  0  0  0  0  0  0  0  0  0  0  0
   -1.6380    2.0717    0.7979 H   0  0  0  0  0  0  0  0  0  0  0  0
   -2.7845    2.3473    2.1490 H   0  0  0  0  0  0  0  0  0  0  0  0
   -4.8887    3.1882   -0.8561 H   0  0  0  0  0  0  0  0  0  0  0  0
   -3.1993    3.7201   -0.7102 H   0  0  0  0  0  0  0  0  0  0  0  0
   -4.3060    3.8777    0.6907 H   0  0  0  0  0  0  0  0  0  0  0  0
    2.1104   -1.2889   -0.1662 H   0  0  0  0  0  0  0  0  0  0  0  0
    0.7864   -0.3315   -0.9006 H   0  0  0  0  0  0  0  0  0  0  0  0
    4.1310    0.2418   -0.4563 H   0  0  0  0  0  0  0  0  0  0  0  0
    2.7641    0.6864   -1.5030 H   0  0  0  0  0  0  0  0  0  0  0  0
    3.4317    3.0962   -1.3797 H   0  0  0  0  0  0  0  0  0  0  0  0
    4.7639    2.1124   -2.0012 H   0  0  0  0  0  0  0  0  0  0  0  0
    4.8778    3.4392    1.8527 H   0  0  0  0  0  0  0  0  0  0  0  0
    5.0929    1.7055    1.6085 H   0  0  0  0  0  0  0  0  0  0  0  0
    2.5141    3.2640    0.9965 H   0  0  0  0  0  0  0  0  0  0  0  0
    2.7679    2.2124    2.4037 H   0  0  0  0  0  0  0  0  0  0  0  0
  1  2  1  0
  2  3  2  0
  3  4  1  0
  4  5  2  0
  5  6  1  0
  6  7  1  0
  7  8  1  0
  8  9  1  0
  9 10  1  0
 10 11  1  0
 11 12  1  0
 11 13  1  0
 13 14  2  0
  6 15  2  0
 15 16  1  0
 16 17  1  0
 17 18  1  0
 18 19  2  0
 18 20  1  0
 20 21  1  0
 21 22  1  0
 22 23  1  0
 23 24  1  0
 24 25  1  0
 15  2  1  0
 25 20  1  0
 13  8  1  0
  1 26  1  0
  1 27  1  0
  1 28  1  0
  3 29  1  0
  4 30  1  0
  5 31  1  0
  8 32  1  0
  9 33  1  0
  9 34  1  0
 10 35  1  0
 10 36  1  0
 12 37  1  0
 12 38  1  0
 12 39  1  0
 17 40  1  0
 17 41  1  0
 21 42  1  0
 21 43  1  0
 22 44  1  0
 22 45  1  0
 24 46  1  0
 24 47  1  0
 25 48  1  0
 25 49  1  0
M  END
