LIG
     RDKit          3D

 42 43  0  0  0  0  0  0  0  0999 V2000
   31.2944   14.2499    9.7794 C   0  0  0  0  0  0  0  0  0  0  0  0
   32.0375   13.4781    8.7287 C   0  0  0  0  0  0  0  0  0  0  0  0
   33.3888   13.7527    8.5273 C   0  0  0  0  0  0  0  0  0  0  0  0
   34.0855   13.1848    7.4742 C   0  0  0  0  0  0  0  0  0  0  0  0
   33.4439   12.3143    6.6107 C   0  0  0  0  0  0  0  0  0  0  0  0
   34.1666   11.8055    5.5759 O   0  0  0  0  0  0  0  0  0  0  0  0
   33.6772   12.2687    4.3310 C   0  0  0  0  0  0  0  0  0  0  0  0
   33.6428   13.7836    4.0402 C   0  0  0  0  0  0  0  0  0  0  0  0
   32.5838   14.4146    4.0052 O   0  0  0  0  0  0  0  0  0  0  0  0
   34.8784   14.3368    3.6845 N   0  0  0  0  0  0  0  0  0  0  0  0
   35.9880   14.2110    4.6339 C   0  0  0  0  0  0  0  0  0  0  0  0
   37.3194   14.6535    4.0305 C   0  0  0  0  0  0  0  0  0  0  0  0
   37.2345   15.9768    3.4984 O   0  0  0  0  0  0  0  0  0  0  0  0
   36.2254   16.0447    2.4814 C   0  0  0  0  0  0  0  0  0  0  0  0
   34.8461   15.6249    2.9976 C   0  0  0  0  0  0  0  0  0  0  0  0
   32.1200   11.9729    6.8180 C   0  0  0  0  0  0  0  0  0  0  0  0
   31.4080   12.5907    7.8447 C   0  0  0  0  0  0  0  0  0  0  0  0
   30.0136   12.4287    7.9147 N   0  0  0  0  0  0  0  0  0  0  0  0
   29.2721   12.8536    6.8157 C   0  0  0  0  0  0  0  0  0  0  0  0
   29.6858   12.9451    5.6629 O   0  0  0  0  0  0  0  0  0  0  0  0
   27.8650   13.2423    7.1306 C   0  0  0  0  0  0  0  0  0  0  0  0
   27.8535   14.3616    8.0654 C   0  0  0  0  0  0  0  0  0  0  0  0
   27.8089   15.1844    8.8816 N   0  0  0  0  0  0  0  0  0  0  0  0
   31.9744   14.8439   10.3981 H   0  0  0  0  0  0  0  0  0  0  0  0
   30.7409   13.6047   10.4553 H   0  0  0  0  0  0  0  0  0  0  0  0
   30.5932   14.9414    9.3081 H   0  0  0  0  0  0  0  0  0  0  0  0
   33.9110   14.4797    9.1301 H   0  0  0  0  0  0  0  0  0  0  0  0
   35.1335   13.4310    7.3315 H   0  0  0  0  0  0  0  0  0  0  0  0
   32.6846   11.8574    4.1263 H   0  0  0  0  0  0  0  0  0  0  0  0
   34.3190   11.8199    3.5614 H   0  0  0  0  0  0  0  0  0  0  0  0
   36.0808   13.1809    4.9819 H   0  0  0  0  0  0  0  0  0  0  0  0
   35.7422   14.8467    5.4926 H   0  0  0  0  0  0  0  0  0  0  0  0
   37.6344   13.9693    3.2335 H   0  0  0  0  0  0  0  0  0  0  0  0
   38.0986   14.6492    4.7991 H   0  0  0  0  0  0  0  0  0  0  0  0
   36.5329   15.4063    1.6442 H   0  0  0  0  0  0  0  0  0  0  0  0
   36.1881   17.0748    2.1132 H   0  0  0  0  0  0  0  0  0  0  0  0
   34.1366   15.5624    2.1642 H   0  0  0  0  0  0  0  0  0  0  0  0
   34.4530   16.3635    3.6903 H   0  0  0  0  0  0  0  0  0  0  0  0
   31.6302   11.2626    6.1623 H   0  0  0  0  0  0  0  0  0  0  0  0
   29.6114   12.5897    8.8362 H   0  0  0  0  0  0  0  0  0  0  0  0
   27.3579   12.3660    7.5346 H   0  0  0  0  0  0  0  0  0  0  0  0
   27.3532   13.5124    6.2011 H   0  0  0  0  0  0  0  0  0  0  0  0
  1  2  1  0
  2  3  2  0
  3  4  1  0
  4  5  2  0
  5  6  1  0
  6  7  1  0
  7  8  1  0
  8  9  2  0
  8 10  1  0
 10 11  1  0
 11 12  1  0
 12 13  1  0
 13 14  1  0
 14 15  1  0
  5 16  1  0
 16 17  2  0
 17 18  1  0
 18 19  1  0
 19 20  2  0
 19 21  1  0
 21 22  1  0
 22 23  3  0
 17  2  1  0
 15 10  1  0
  1 24  1  0
  1 25  1  0
  1 26  1  0
  3 27  1  0
  4 28  1  0
  7 29  1  0
  7 30  1  0
 11 31  1  0
 11 32  1  0
 12 33  1  0
 12 34  1  0
 14 35  1  0
 14 36  1  0
 15 37  1  0
 15 38  1  0
 16 39  1  0
 18 40  1  0
 21 41  1  0
 21 42  1  0
M  END
