LIG
     RDKit          3D

 31 31  0  0  0  0  0  0  0  0999 V2000
   33.3498    7.6954    6.2802 C   0  0  0  0  0  0  0  0  0  0  0  0
   33.9640    9.4730    5.7020 C   0  0  0  0  0  0  0  0  0  0  0  0
   32.8910    9.7790    6.6350 C   0  0  0  0  0  0  0  0  0  0  0  0
   32.3120   10.9580    6.8650 C   0  0  0  0  0  0  0  0  0  0  0  0
   32.7600   12.2430    6.2540 N   0  0  0  0  0  0  0  0  0  0  0  0
   34.4250   13.2280    7.6390 C   0  0  0  0  0  0  0  0  0  0  0  0
   34.9120   12.5690    8.5560 O   0  0  0  0  0  0  0  0  0  0  0  0
   34.6680   14.7180    7.5670 C   0  0  0  0  0  0  0  0  0  0  0  0
   35.0470   15.1300    6.2680 O   0  0  0  0  0  0  0  0  0  0  0  0
   31.2980   10.7060    7.7380 C   0  0  0  0  0  0  0  0  0  0  0  0
   30.3770   11.5810    8.3040 N   0  0  0  0  0  0  0  0  0  0  0  0
   29.7090   12.5130    7.5840 C   0  0  0  0  0  0  0  0  0  0  0  0
   29.9180   12.6920    6.3980 O   0  0  0  0  0  0  0  0  0  0  0  0
   28.7130   13.3600    8.3510 C   0  0  0  0  0  0  0  0  0  0  0  0
   28.5830   14.6820    7.7450 C   0  0  0  0  0  0  0  0  0  0  0  0
   28.5580   15.7160    7.2730 N   0  0  0  0  0  0  0  0  0  0  0  0
   31.3250    9.3200    8.0160 C   0  0  0  0  0  0  0  0  0  0  0  0
   30.4340    8.4960    8.8860 C   0  0  0  0  0  0  0  0  0  0  0  0
   34.4131    7.9071    6.1265 H   0  0  0  0  0  0  0  0  0  0  0  0
   33.2847    6.8170    6.9312 H   0  0  0  0  0  0  0  0  0  0  0  0
   32.8913    7.4525    5.3165 H   0  0  0  0  0  0  0  0  0  0  0  0
   32.5409    8.8471    7.1888 H   0  0  0  0  0  0  0  0  0  0  0  0
   32.7885   12.8992    5.7892 H   0  0  0  0  0  0  0  0  0  0  0  0
   33.7477   15.2453    7.8470 H   0  0  0  0  0  0  0  0  0  0  0  0
   35.4745   14.9765    8.2650 H   0  0  0  0  0  0  0  0  0  0  0  0
   34.9429   14.3466    5.6919 H   0  0  0  0  0  0  0  0  0  0  0  0
   30.2883   11.5809    9.2837 H   0  0  0  0  0  0  0  0  0  0  0  0
   29.0455   13.4356    9.3911 H   0  0  0  0  0  0  0  0  0  0  0  0
   27.7471   12.8454    8.3553 H   0  0  0  0  0  0  0  0  0  0  0  0
   32.1399    8.6761    7.5550 H   0  0  0  0  0  0  0  0  0  0  0  0
   31.6873    7.6030    7.8862 H   0  0  0  0  0  0  0  0  0  0  0  0
  1  2  1  0
  2  3  4  0
  3  4  4  0
  4  5  1  0
  5  6  1  0
  6  7  2  0
  6  8  1  0
  8  9  1  0
  4 10  4  0
 10 11  1  0
 11 12  1  0
 12 13  2  0
 12 14  1  0
 14 15  1  0
 15 16  3  0
 10 17  4  0
 17 18  4  0
 18  2  4  0
  1 19  1  0
  1 20  1  0
  1 21  1  0
  3 22  1  0
  5 23  1  0
  8 24  1  0
  8 25  1  0
  9 26  1  0
 11 27  1  0
 14 28  1  0
 14 29  1  0
 17 30  1  0
 18 31  1  0
M  END
