A71EV2A-x0416_A_147_A71EV2A-x0501+A+152+1
     RDKit          3D

 15 16  0  0  0  0  0  0  0  0999 V2000
   33.4420   13.7460    5.7670 O   0  0  0  0  0  0  0  0  0  0  0  0
   33.5900   13.0680    4.7540 C   0  0  0  0  0  0  0  0  0  0  0  0
   34.1200   13.7080    3.4770 C   0  0  1  0  0  0  0  0  0  0  0  0
   34.9020   12.7780    2.7050 O   0  0  0  0  0  0  0  0  0  0  0  0
   34.7960   13.1450    1.3220 C   0  0  0  0  0  0  0  0  0  0  0  0
   33.7650   14.2490    1.2210 C   0  0  0  0  0  0  0  0  0  0  0  0
   33.0230   14.1560    2.5380 C   0  0  0  0  0  0  0  0  0  0  0  0
   33.3300   11.7430    4.6780 N   0  0  0  0  0  0  0  0  0  0  0  0
   32.8210   10.9050    5.6820 C   0  0  0  0  0  0  0  0  0  0  0  0
   31.8610   11.3420    6.6030 C   0  0  0  0  0  0  0  0  0  0  0  0
   31.3460   10.4150    7.4890 C   0  0  0  0  0  0  0  0  0  0  0  0
   33.2630    9.6380    5.6520 N   0  0  0  0  0  0  0  0  0  0  0  0
   32.7340    8.7720    6.5300 C   0  0  0  0  0  0  0  0  0  0  0  0
   31.7660    9.0980    7.4680 C   0  0  0  0  0  0  0  0  0  0  0  0
   31.1860    8.0690    8.4070 C   0  0  0  0  0  0  0  0  0  0  0  0
 15 14  1  0
 14 11  4  0
 11 10  4  0
 10  9  4  0
  9  8  1  0
  8  2  1  0
  2  1  2  0
  3  2  1  1
  3  7  1  0
  7  6  1  0
  6  5  1  0
  5  4  1  0
  4  3  1  0
 12  9  4  0
 13 12  4  0
 14 13  4  0
M  END
