LIG
     RDKit          3D

 35 36  0  0  0  0  0  0  0  0999 V2000
    1.2323    1.7308   -5.9922 N   0  0  0  0  0  0  0  0  0  0  0  0
    2.2079    1.5087   -5.4044 C   0  0  0  0  0  0  0  0  0  0  0  0
    3.4175    1.1643   -4.6611 C   0  0  0  0  0  0  0  0  0  0  0  0
    3.2876    1.5704   -3.2097 C   0  0  0  0  0  0  0  0  0  0  0  0
    3.9780    2.4809   -2.7607 O   0  0  0  0  0  0  0  0  0  0  0  0
    2.3763    0.8023   -2.4982 N   0  0  0  0  0  0  0  0  0  0  0  0
    2.0603    0.9002   -1.1242 C   0  0  0  0  0  0  0  0  0  0  0  0
    2.6900    1.7722   -0.2383 C   0  0  0  0  0  0  0  0  0  0  0  0
    2.3179    1.7967    1.1077 C   0  0  0  0  0  0  0  0  0  0  0  0
    1.3134    0.9514    1.5822 C   0  0  0  0  0  0  0  0  0  0  0  0
    0.6699    0.0741    0.7130 C   0  0  0  0  0  0  0  0  0  0  0  0
   -0.3516   -0.8084    1.1065 N   0  0  0  0  0  0  0  0  0  0  0  0
   -0.9381   -0.9452    2.3548 C   0  0  0  0  0  0  0  0  0  0  0  0
   -0.6565   -0.3185    3.3704 O   0  0  0  0  0  0  0  0  0  0  0  0
   -1.9988   -2.0669    2.3494 C   0  0  0  0  0  0  0  0  0  0  0  0
   -3.1861   -1.7583    3.2458 C   0  0  0  0  0  0  0  0  0  0  0  0
   -4.1475   -1.1038    2.2846 C   0  0  0  0  0  0  0  0  0  0  0  0
   -3.9059   -1.8886    1.0153 C   0  0  0  0  0  0  0  0  0  0  0  0
   -2.5210   -2.2688    1.0188 O   0  0  0  0  0  0  0  0  0  0  0  0
    1.0516    0.0535   -0.6373 C   0  0  0  0  0  0  0  0  0  0  0  0
    4.2882    1.6717   -5.0904 H   0  0  0  0  0  0  0  0  0  0  0  0
    3.6158    0.0880   -4.7105 H   0  0  0  0  0  0  0  0  0  0  0  0
    1.8340    0.1214   -3.0177 H   0  0  0  0  0  0  0  0  0  0  0  0
    3.4776    2.4482   -0.5550 H   0  0  0  0  0  0  0  0  0  0  0  0
    2.8146    2.4804    1.7924 H   0  0  0  0  0  0  0  0  0  0  0  0
    1.0585    1.0048    2.6360 H   0  0  0  0  0  0  0  0  0  0  0  0
   -0.7796   -1.3899    0.3893 H   0  0  0  0  0  0  0  0  0  0  0  0
   -1.4906   -2.9849    2.6651 H   0  0  0  0  0  0  0  0  0  0  0  0
   -3.6231   -2.6952    3.6126 H   0  0  0  0  0  0  0  0  0  0  0  0
   -2.9572   -1.1316    4.1117 H   0  0  0  0  0  0  0  0  0  0  0  0
   -3.8675   -0.0542    2.1357 H   0  0  0  0  0  0  0  0  0  0  0  0
   -5.1891   -1.1370    2.6146 H   0  0  0  0  0  0  0  0  0  0  0  0
   -4.5033   -2.8064    0.9966 H   0  0  0  0  0  0  0  0  0  0  0  0
   -4.1258   -1.3100    0.1139 H   0  0  0  0  0  0  0  0  0  0  0  0
    0.5503   -0.6306   -1.3168 H   0  0  0  0  0  0  0  0  0  0  0  0
  1  2  3  0
  2  3  1  0
  3  4  1  0
  4  5  2  0
  4  6  1  0
  6  7  1  0
  7  8  2  0
  8  9  1  0
  9 10  2  0
 10 11  1  0
 11 12  1  0
 12 13  1  0
 13 14  2  0
 13 15  1  0
 15 16  1  0
 16 17  1  0
 17 18  1  0
 18 19  1  0
 11 20  2  0
 20  7  1  0
 19 15  1  0
  3 21  1  0
  3 22  1  0
  6 23  1  0
  8 24  1  0
  9 25  1  0
 10 26  1  0
 12 27  1  0
 15 28  1  0
 16 29  1  0
 16 30  1  0
 17 31  1  0
 17 32  1  0
 18 33  1  0
 18 34  1  0
 20 35  1  0
M  END
