LIG
     RDKit          3D

 38 39  0  0  0  0  0  0  0  0999 V2000
    7.8036    0.7981   -2.4348 N   0  0  0  0  0  0  0  0  0  0  0  0
    7.4019    0.0372   -1.6562 C   0  0  0  0  0  0  0  0  0  0  0  0
    6.8938   -0.9673   -0.7252 C   0  0  0  0  0  0  0  0  0  0  0  0
    5.4487   -0.6885   -0.3758 C   0  0  0  0  0  0  0  0  0  0  0  0
    5.1496   -0.2980    0.7487 O   0  0  0  0  0  0  0  0  0  0  0  0
    4.5640   -0.9580   -1.4100 N   0  0  0  0  0  0  0  0  0  0  0  0
    3.1560   -0.8202   -1.3863 C   0  0  0  0  0  0  0  0  0  0  0  0
    2.4377   -1.1479   -2.5367 C   0  0  0  0  0  0  0  0  0  0  0  0
    1.0924   -1.0682   -2.6556 N   0  0  0  0  0  0  0  0  0  0  0  0
    0.4189   -0.6215   -1.5691 C   0  0  0  0  0  0  0  0  0  0  0  0
    1.0240   -0.2882   -0.3648 C   0  0  0  0  0  0  0  0  0  0  0  0
    0.4035    0.1522    0.7687 O   0  0  0  0  0  0  0  0  0  0  0  0
   -0.9831   -0.1244    0.9146 C   0  0  0  0  0  0  0  0  0  0  0  0
   -1.9415    0.9141    0.3052 C   0  0  0  0  0  0  0  0  0  0  0  0
   -1.5397    1.7956   -0.4553 O   0  0  0  0  0  0  0  0  0  0  0  0
   -3.2849    0.7984    0.6385 N   0  0  0  0  0  0  0  0  0  0  0  0
   -3.8540   -0.2280    1.5170 C   0  0  0  0  0  0  0  0  0  0  0  0
   -5.3619   -0.3782    1.2909 C   0  0  0  0  0  0  0  0  0  0  0  0
   -6.0907    0.8372    1.4988 O   0  0  0  0  0  0  0  0  0  0  0  0
   -5.3627    2.0266    1.1570 C   0  0  0  0  0  0  0  0  0  0  0  0
   -4.2359    1.7985    0.1448 C   0  0  0  0  0  0  0  0  0  0  0  0
    2.4175   -0.3815   -0.2888 C   0  0  0  0  0  0  0  0  0  0  0  0
    7.4834   -0.9683    0.1982 H   0  0  0  0  0  0  0  0  0  0  0  0
    6.9679   -1.9730   -1.1538 H   0  0  0  0  0  0  0  0  0  0  0  0
    4.9556   -1.2569   -2.2968 H   0  0  0  0  0  0  0  0  0  0  0  0
    2.9365   -1.4973   -3.4365 H   0  0  0  0  0  0  0  0  0  0  0  0
   -0.6501   -0.5310   -1.7274 H   0  0  0  0  0  0  0  0  0  0  0  0
   -1.1659   -0.1386    1.9952 H   0  0  0  0  0  0  0  0  0  0  0  0
   -1.2274   -1.1236    0.5340 H   0  0  0  0  0  0  0  0  0  0  0  0
   -3.3502   -1.1841    1.3520 H   0  0  0  0  0  0  0  0  0  0  0  0
   -3.6569    0.0966    2.5452 H   0  0  0  0  0  0  0  0  0  0  0  0
   -5.7731   -1.1310    1.9708 H   0  0  0  0  0  0  0  0  0  0  0  0
   -5.5626   -0.7167    0.2676 H   0  0  0  0  0  0  0  0  0  0  0  0
   -4.9539    2.4360    2.0883 H   0  0  0  0  0  0  0  0  0  0  0  0
   -6.0823    2.7536    0.7675 H   0  0  0  0  0  0  0  0  0  0  0  0
   -4.6439    1.4046   -0.7934 H   0  0  0  0  0  0  0  0  0  0  0  0
   -3.7261    2.7422   -0.0738 H   0  0  0  0  0  0  0  0  0  0  0  0
    2.8921   -0.1006    0.6456 H   0  0  0  0  0  0  0  0  0  0  0  0
  1  2  3  0
  2  3  1  0
  3  4  1  0
  4  5  2  0
  4  6  1  0
  6  7  1  0
  7  8  2  0
  8  9  1  0
  9 10  2  0
 10 11  1  0
 11 12  1  0
 12 13  1  0
 13 14  1  0
 14 15  2  0
 14 16  1  0
 16 17  1  0
 17 18  1  0
 18 19  1  0
 19 20  1  0
 20 21  1  0
 11 22  2  0
 22  7  1  0
 21 16  1  0
  3 23  1  0
  3 24  1  0
  6 25  1  0
  8 26  1  0
 10 27  1  0
 13 28  1  0
 13 29  1  0
 17 30  1  0
 17 31  1  0
 18 32  1  0
 18 33  1  0
 20 34  1  0
 20 35  1  0
 21 36  1  0
 21 37  1  0
 22 38  1  0
M  END
