LIG
     RDKit          3D

 40 41  0  0  0  0  0  0  0  0999 V2000
   30.6843    8.1799    8.1449 C   0  0  0  0  0  0  0  0  0  0  0  0
   31.3170    9.3894    7.5675 C   0  0  0  0  0  0  0  0  0  0  0  0
   31.0149   10.5666    8.1742 C   0  0  0  0  0  0  0  0  0  0  0  0
   31.7290   11.6746    7.7964 C   0  0  0  0  0  0  0  0  0  0  0  0
   31.4060   12.8020    8.4781 O   0  0  0  0  0  0  0  0  0  0  0  0
   30.4576   13.5473    7.7694 C   0  0  0  0  0  0  0  0  0  0  0  0
   29.1903   12.8570    7.2491 C   0  0  0  0  0  0  0  0  0  0  0  0
   28.2012   13.9861    7.2471 C   0  0  0  0  0  0  0  0  0  0  0  0
   28.5257   14.6283    8.4839 N   0  0  0  0  0  0  0  0  0  0  0  0
   27.7453   15.6752    9.0167 C   0  0  0  0  0  0  0  0  0  0  0  0
   29.8965   14.5782    8.7318 C   0  0  0  0  0  0  0  0  0  0  0  0
   30.5096   15.2686    9.5347 O   0  0  0  0  0  0  0  0  0  0  0  0
   32.7562   11.6035    6.8586 C   0  0  0  0  0  0  0  0  0  0  0  0
   33.6248   12.6929    6.6443 N   0  0  0  0  0  0  0  0  0  0  0  0
   34.2215   13.3614    7.7103 C   0  0  0  0  0  0  0  0  0  0  0  0
   34.0411   13.0873    8.8986 O   0  0  0  0  0  0  0  0  0  0  0  0
   35.1614   14.4858    7.3257 C   0  0  0  0  0  0  0  0  0  0  0  0
   35.4529   14.6174    5.5402 S   0  0  0  0  0  0  0  0  0  0  0  0
   32.9189   10.3878    6.1993 C   0  0  0  0  0  0  0  0  0  0  0  0
   33.9492   10.1828    5.1302 C   0  0  0  0  0  0  0  0  0  0  0  0
   32.2011    9.2888    6.5453 N   0  0  0  0  0  0  0  0  0  0  0  0
   31.0480    7.3413    7.5719 H   0  0  0  0  0  0  0  0  0  0  0  0
   29.5936    8.2310    8.0991 H   0  0  0  0  0  0  0  0  0  0  0  0
   30.9861    8.0572    9.1893 H   0  0  0  0  0  0  0  0  0  0  0  0
   30.2871   10.6081    8.9734 H   0  0  0  0  0  0  0  0  0  0  0  0
   30.9544   14.0223    6.9301 H   0  0  0  0  0  0  0  0  0  0  0  0
   29.3255   12.4183    6.2569 H   0  0  0  0  0  0  0  0  0  0  0  0
   28.8503   12.0712    7.9278 H   0  0  0  0  0  0  0  0  0  0  0  0
   27.1696   13.6340    7.2350 H   0  0  0  0  0  0  0  0  0  0  0  0
   28.3776   14.6800    6.4197 H   0  0  0  0  0  0  0  0  0  0  0  0
   26.7252   15.5836    8.6630 H   0  0  0  0  0  0  0  0  0  0  0  0
   27.7538   15.5278   10.0927 H   0  0  0  0  0  0  0  0  0  0  0  0
   28.1876   16.6236    8.7138 H   0  0  0  0  0  0  0  0  0  0  0  0
   34.2356   12.6644    5.8322 H   0  0  0  0  0  0  0  0  0  0  0  0
   36.1170   14.3188    7.8286 H   0  0  0  0  0  0  0  0  0  0  0  0
   34.7224   15.4156    7.6819 H   0  0  0  0  0  0  0  0  0  0  0  0
   35.6281   15.9556    5.5156 H   0  0  0  0  0  0  0  0  0  0  0  0
   33.7120   10.8032    4.2602 H   0  0  0  0  0  0  0  0  0  0  0  0
   34.9490   10.4389    5.4887 H   0  0  0  0  0  0  0  0  0  0  0  0
   33.9687    9.1381    4.8029 H   0  0  0  0  0  0  0  0  0  0  0  0
  1  2  1  0
  2  3  2  0
  3  4  1  0
  4  5  1  0
  5  6  1  0
  6  7  1  0
  7  8  1  0
  8  9  1  0
  9 10  1  0
  9 11  1  0
 11 12  2  0
  4 13  2  0
 13 14  1  0
 14 15  1  0
 15 16  2  0
 15 17  1  0
 17 18  1  0
 13 19  1  0
 19 20  1  0
 19 21  2  0
 21  2  1  0
 11  6  1  0
  1 22  1  0
  1 23  1  0
  1 24  1  0
  3 25  1  0
  6 26  1  0
  7 27  1  0
  7 28  1  0
  8 29  1  0
  8 30  1  0
 10 31  1  0
 10 32  1  0
 10 33  1  0
 14 34  1  0
 17 35  1  0
 17 36  1  0
 18 37  1  0
 20 38  1  0
 20 39  1  0
 20 40  1  0
M  END
