LIG
     RDKit          3D

 40 40  0  0  0  0  0  0  0  0999 V2000
   30.1570    8.4110    8.0350 C   0  0  0  0  0  0  0  0  0  0  0  0
   31.0170    9.5590    7.5720 C   0  0  0  0  0  0  0  0  0  0  0  0
   32.1560    9.3390    6.8090 C   0  0  0  0  0  0  0  0  0  0  0  0
   33.0110   10.3720    6.4380 C   0  0  0  0  0  0  0  0  0  0  0  0
   34.1980   10.0910    5.5530 C   0  0  0  0  0  0  0  0  0  0  0  0
   32.7080   11.6650    6.8730 C   0  0  0  0  0  0  0  0  0  0  0  0
   33.6520   12.7090    6.6590 N   0  0  0  0  0  0  0  0  0  0  0  0
   34.4250   13.2280    7.6390 C   0  0  0  0  0  0  0  0  0  0  0  0
   34.9120   12.5690    8.5560 O   0  0  0  0  0  0  0  0  0  0  0  0
   34.6680   14.7180    7.5670 C   0  0  0  0  0  0  0  0  0  0  0  0
   35.0470   15.1300    6.2680 O   0  0  0  0  0  0  0  0  0  0  0  0
   35.6854   16.4045    6.2643 C   0  0  0  0  0  0  0  0  0  0  0  0
   36.1962   16.7871    4.8639 C   0  0  0  0  0  0  0  0  0  0  0  0
   36.0595   16.0219    3.9057 O   0  0  0  0  0  0  0  0  0  0  0  0
   36.8204   18.0290    4.7354 N   0  0  0  0  0  0  0  0  0  0  0  0
   37.2064   18.4674    3.4031 C   0  0  0  0  0  0  0  0  0  0  0  0
   36.8273   19.0527    5.7699 C   0  0  0  0  0  0  0  0  0  0  0  0
   31.5450   11.9340    7.6020 C   0  0  0  0  0  0  0  0  0  0  0  0
   30.7220   10.8640    7.9390 C   0  0  0  0  0  0  0  0  0  0  0  0
   29.4280   11.6110    9.1450 O   0  0  0  0  0  0  0  0  0  0  0  0
   30.7586    7.5027    8.1354 H   0  0  0  0  0  0  0  0  0  0  0  0
   30.1519    7.5972    7.3043 H   0  0  0  0  0  0  0  0  0  0  0  0
   29.3493    8.2362    7.3186 H   0  0  0  0  0  0  0  0  0  0  0  0
   32.3873    8.3112    6.4934 H   0  0  0  0  0  0  0  0  0  0  0  0
   34.7994   10.9921    5.3876 H   0  0  0  0  0  0  0  0  0  0  0  0
   33.8647    9.7333    4.5745 H   0  0  0  0  0  0  0  0  0  0  0  0
   34.8503    9.3446    6.0164 H   0  0  0  0  0  0  0  0  0  0  0  0
   33.7588   13.0838    5.7594 H   0  0  0  0  0  0  0  0  0  0  0  0
   33.7383   15.2316    7.8634 H   0  0  0  0  0  0  0  0  0  0  0  0
   35.4673   14.9753    8.2819 H   0  0  0  0  0  0  0  0  0  0  0  0
   36.5413   16.3786    6.9490 H   0  0  0  0  0  0  0  0  0  0  0  0
   34.9571   17.1573    6.5855 H   0  0  0  0  0  0  0  0  0  0  0  0
   37.3325   17.6260    2.7176 H   0  0  0  0  0  0  0  0  0  0  0  0
   36.4256   19.1277    3.0159 H   0  0  0  0  0  0  0  0  0  0  0  0
   38.1523   19.0137    3.4650 H   0  0  0  0  0  0  0  0  0  0  0  0
   35.9937   19.7368    5.5865 H   0  0  0  0  0  0  0  0  0  0  0  0
   36.7226   18.6303    6.7705 H   0  0  0  0  0  0  0  0  0  0  0  0
   37.7721   19.6032    5.7261 H   0  0  0  0  0  0  0  0  0  0  0  0
   31.2829   12.9250    7.8984 H   0  0  0  0  0  0  0  0  0  0  0  0
   29.6727   12.4728    8.9203 H   0  0  0  0  0  0  0  0  0  0  0  0
  1  2  1  0
  2  3  4  0
  3  4  4  0
  4  5  1  0
  4  6  4  0
  6  7  1  0
  7  8  1  0
  8  9  2  0
  8 10  1  0
 10 11  1  0
 11 12  1  0
 12 13  1  0
 13 14  2  0
 13 15  1  0
 15 16  1  0
 15 17  1  0
  6 18  4  0
 18 19  4  0
 19 20  1  0
 19  2  4  0
  1 21  1  0
  1 22  1  0
  1 23  1  0
  3 24  1  0
  5 25  1  0
  5 26  1  0
  5 27  1  0
  7 28  1  0
 10 29  1  0
 10 30  1  0
 12 31  1  0
 12 32  1  0
 16 33  1  0
 16 34  1  0
 16 35  1  0
 17 36  1  0
 17 37  1  0
 17 38  1  0
 18 39  1  0
 20 40  1  0
M  END
