LIG
     RDKit          3D

 40 41  0  0  0  0  0  0  0  0999 V2000
   30.8686    8.3300    8.0824 C   0  0  0  0  0  0  0  0  0  0  0  0
   31.4617    9.5380    7.4435 C   0  0  0  0  0  0  0  0  0  0  0  0
   31.0320   10.7648    7.8803 C   0  0  0  0  0  0  0  0  0  0  0  0
   31.6680   11.8984    7.4070 C   0  0  0  0  0  0  0  0  0  0  0  0
   31.2360   13.1796    7.6515 O   0  0  0  0  0  0  0  0  0  0  0  0
   30.2596   13.2835    8.6633 C   0  0  0  0  0  0  0  0  0  0  0  0
   28.8562   12.9074    8.1658 C   0  0  0  0  0  0  0  0  0  0  0  0
   28.3460   14.1898    7.5947 C   0  0  0  0  0  0  0  0  0  0  0  0
   28.8871   15.1364    8.5163 N   0  0  0  0  0  0  0  0  0  0  0  0
   28.5347   16.4922    8.3936 C   0  0  0  0  0  0  0  0  0  0  0  0
   30.0814   14.7211    9.0770 C   0  0  0  0  0  0  0  0  0  0  0  0
   30.8502   15.4038    9.7376 O   0  0  0  0  0  0  0  0  0  0  0  0
   32.8028   11.7582    6.6049 C   0  0  0  0  0  0  0  0  0  0  0  0
   33.6786   12.8547    6.4481 N   0  0  0  0  0  0  0  0  0  0  0  0
   34.1896   13.4644    7.6039 C   0  0  0  0  0  0  0  0  0  0  0  0
   33.9009   13.1676    8.7636 O   0  0  0  0  0  0  0  0  0  0  0  0
   35.2123   14.5360    7.2633 C   0  0  0  0  0  0  0  0  0  0  0  0
   36.0116   14.0992    6.1682 O   0  0  0  0  0  0  0  0  0  0  0  0
   33.0962   10.4946    6.0966 C   0  0  0  0  0  0  0  0  0  0  0  0
   34.2010   10.2564    5.1143 C   0  0  0  0  0  0  0  0  0  0  0  0
   32.4212    9.3917    6.5033 N   0  0  0  0  0  0  0  0  0  0  0  0
   31.1813    8.2569    9.1269 H   0  0  0  0  0  0  0  0  0  0  0  0
   29.7764    8.3514    8.0460 H   0  0  0  0  0  0  0  0  0  0  0  0
   31.2380    7.4641    7.5481 H   0  0  0  0  0  0  0  0  0  0  0  0
   30.2270   10.7801    8.6020 H   0  0  0  0  0  0  0  0  0  0  0  0
   30.5771   12.7635    9.5511 H   0  0  0  0  0  0  0  0  0  0  0  0
   28.8060   12.1130    7.4187 H   0  0  0  0  0  0  0  0  0  0  0  0
   28.2351   12.6421    9.0248 H   0  0  0  0  0  0  0  0  0  0  0  0
   28.7471   14.3838    6.5937 H   0  0  0  0  0  0  0  0  0  0  0  0
   27.2569   14.2406    7.5791 H   0  0  0  0  0  0  0  0  0  0  0  0
   28.4912   16.7282    7.3359 H   0  0  0  0  0  0  0  0  0  0  0  0
   27.5897   16.5840    8.9219 H   0  0  0  0  0  0  0  0  0  0  0  0
   29.2627   17.1595    8.8208 H   0  0  0  0  0  0  0  0  0  0  0  0
   34.3781   12.8299    5.7102 H   0  0  0  0  0  0  0  0  0  0  0  0
   35.8556   14.7180    8.1273 H   0  0  0  0  0  0  0  0  0  0  0  0
   34.7063   15.4564    6.9779 H   0  0  0  0  0  0  0  0  0  0  0  0
   36.6041   13.4154    6.5358 H   0  0  0  0  0  0  0  0  0  0  0  0
   34.3409    9.1849    4.9366 H   0  0  0  0  0  0  0  0  0  0  0  0
   33.9529   10.7272    4.1578 H   0  0  0  0  0  0  0  0  0  0  0  0
   35.1499   10.6627    5.4720 H   0  0  0  0  0  0  0  0  0  0  0  0
  1  2  1  0
  2  3  2  0
  3  4  1  0
  4  5  1  0
  5  6  1  0
  6  7  1  0
  7  8  1  0
  8  9  1  0
  9 10  1  0
  9 11  1  0
 11 12  2  0
  4 13  2  0
 13 14  1  0
 14 15  1  0
 15 16  2  0
 15 17  1  0
 17 18  1  0
 13 19  1  0
 19 20  1  0
 19 21  2  0
 21  2  1  0
 11  6  1  0
  1 22  1  0
  1 23  1  0
  1 24  1  0
  3 25  1  0
  6 26  1  0
  7 27  1  0
  7 28  1  0
  8 29  1  0
  8 30  1  0
 10 31  1  0
 10 32  1  0
 10 33  1  0
 14 34  1  0
 17 35  1  0
 17 36  1  0
 18 37  1  0
 20 38  1  0
 20 39  1  0
 20 40  1  0
M  END
