LIG
     RDKit          3D

 39 40  0  0  0  0  0  0  0  0999 V2000
   28.6006   16.1349    7.8170 N   0  0  0  0  0  0  0  0  0  0  0  0
   28.5947   15.0696    8.2688 C   0  0  0  0  0  0  0  0  0  0  0  0
   28.6790   13.7566    8.8762 C   0  0  0  0  0  0  0  0  0  0  0  0
   29.2067   12.7696    7.8819 C   0  0  0  0  0  0  0  0  0  0  0  0
   29.1559   12.9336    6.6620 O   0  0  0  0  0  0  0  0  0  0  0  0
   29.7769   11.6673    8.4939 N   0  0  0  0  0  0  0  0  0  0  0  0
   30.7383   10.8797    7.8763 C   0  0  0  0  0  0  0  0  0  0  0  0
   30.9232    9.5466    8.1748 C   0  0  0  0  0  0  0  0  0  0  0  0
   31.8904    8.8487    7.4548 C   0  0  0  0  0  0  0  0  0  0  0  0
   32.7166    9.4922    6.5192 C   0  0  0  0  0  0  0  0  0  0  0  0
   32.5603   10.8450    6.2818 C   0  0  0  0  0  0  0  0  0  0  0  0
   33.3906   11.4569    5.3932 O   0  0  0  0  0  0  0  0  0  0  0  0
   33.0457   12.7932    5.0115 C   0  0  0  0  0  0  0  0  0  0  0  0
   33.5416   13.8105    6.0372 C   0  0  0  0  0  0  0  0  0  0  0  0
   33.1049   13.8250    7.1937 O   0  0  0  0  0  0  0  0  0  0  0  0
   34.5593   14.6669    5.6709 N   0  0  0  0  0  0  0  0  0  0  0  0
   35.5220   14.8934    6.7390 C   0  0  0  0  0  0  0  0  0  0  0  0
   36.5947   13.8095    6.5863 C   0  0  0  0  0  0  0  0  0  0  0  0
   37.2964   14.0122    5.3396 O   0  0  0  0  0  0  0  0  0  0  0  0
   36.3871   13.8358    4.2343 C   0  0  0  0  0  0  0  0  0  0  0  0
   35.1787   14.7742    4.3449 C   0  0  0  0  0  0  0  0  0  0  0  0
   31.5537   11.5015    6.9503 C   0  0  0  0  0  0  0  0  0  0  0  0
   27.7178   13.4106    9.2305 H   0  0  0  0  0  0  0  0  0  0  0  0
   29.3580   13.8142    9.7331 H   0  0  0  0  0  0  0  0  0  0  0  0
   29.3934   11.3653    9.3893 H   0  0  0  0  0  0  0  0  0  0  0  0
   30.2987    9.0273    8.8937 H   0  0  0  0  0  0  0  0  0  0  0  0
   32.0027    7.7875    7.6313 H   0  0  0  0  0  0  0  0  0  0  0  0
   33.4768    8.9248    5.9889 H   0  0  0  0  0  0  0  0  0  0  0  0
   31.9768   12.9379    4.8199 H   0  0  0  0  0  0  0  0  0  0  0  0
   33.5126   12.9303    4.0381 H   0  0  0  0  0  0  0  0  0  0  0  0
   35.9472   15.8800    6.5807 H   0  0  0  0  0  0  0  0  0  0  0  0
   35.0716   14.8528    7.7344 H   0  0  0  0  0  0  0  0  0  0  0  0
   36.1513   12.8119    6.5590 H   0  0  0  0  0  0  0  0  0  0  0  0
   37.3187   13.8135    7.4035 H   0  0  0  0  0  0  0  0  0  0  0  0
   36.9396   14.0405    3.3121 H   0  0  0  0  0  0  0  0  0  0  0  0
   36.0722   12.7861    4.2078 H   0  0  0  0  0  0  0  0  0  0  0  0
   34.4522   14.6057    3.5473 H   0  0  0  0  0  0  0  0  0  0  0  0
   35.5388   15.7977    4.2278 H   0  0  0  0  0  0  0  0  0  0  0  0
   31.3794   12.5507    6.7766 H   0  0  0  0  0  0  0  0  0  0  0  0
  1  2  3  0
  2  3  1  0
  3  4  1  0
  4  5  2  0
  4  6  1  0
  6  7  1  0
  7  8  2  0
  8  9  1  0
  9 10  2  0
 10 11  1  0
 11 12  1  0
 12 13  1  0
 13 14  1  0
 14 15  2  0
 14 16  1  0
 16 17  1  0
 17 18  1  0
 18 19  1  0
 19 20  1  0
 20 21  1  0
 11 22  2  0
 22  7  1  0
 21 16  1  0
  3 23  1  0
  3 24  1  0
  6 25  1  0
  8 26  1  0
  9 27  1  0
 10 28  1  0
 13 29  1  0
 13 30  1  0
 17 31  1  0
 17 32  1  0
 18 33  1  0
 18 34  1  0
 20 35  1  0
 20 36  1  0
 21 37  1  0
 21 38  1  0
 22 39  1  0
M  END
