LIG
     RDKit          3D

 34 34  0  0  0  0  0  0  0  0999 V2000
   36.9391   13.8673    3.0704 C   0  0  0  0  0  0  0  0  0  0  0  0
   36.6854   15.2895    2.9717 N   0  0  0  0  0  0  0  0  0  0  0  0
   37.0625   15.9310    1.7280 C   0  0  0  0  0  0  0  0  0  0  0  0
   36.7331   16.0914    4.1030 C   0  0  0  0  0  0  0  0  0  0  0  0
   37.1244   17.2608    4.0376 O   0  0  0  0  0  0  0  0  0  0  0  0
   36.4427   15.4013    5.4505 C   0  0  0  0  0  0  0  0  0  0  0  0
   35.3319   14.5650    5.7148 O   0  0  0  0  0  0  0  0  0  0  0  0
   35.2223   14.3925    7.1318 C   0  0  0  0  0  0  0  0  0  0  0  0
   34.1808   13.3828    7.5538 C   0  0  0  0  0  0  0  0  0  0  0  0
   33.8642   13.2327    8.7363 O   0  0  0  0  0  0  0  0  0  0  0  0
   33.6731   12.6337    6.5003 N   0  0  0  0  0  0  0  0  0  0  0  0
   32.6421   11.7279    6.7727 C   0  0  0  0  0  0  0  0  0  0  0  0
   31.5103   12.1886    7.4363 C   0  0  0  0  0  0  0  0  0  0  0  0
   30.5827   11.2819    7.9016 C   0  0  0  0  0  0  0  0  0  0  0  0
   29.4805   11.8088    8.4925 O   0  0  0  0  0  0  0  0  0  0  0  0
   30.7798    9.9144    7.7502 C   0  0  0  0  0  0  0  0  0  0  0  0
   31.8767    9.4618    7.0072 C   0  0  0  0  0  0  0  0  0  0  0  0
   32.7823   10.3761    6.4795 C   0  0  0  0  0  0  0  0  0  0  0  0
   33.8476    9.9438    5.7875 F   0  0  0  0  0  0  0  0  0  0  0  0
   38.0070   13.7098    3.2509 H   0  0  0  0  0  0  0  0  0  0  0  0
   36.3712   13.4028    3.8765 H   0  0  0  0  0  0  0  0  0  0  0  0
   36.6497   13.3799    2.1345 H   0  0  0  0  0  0  0  0  0  0  0  0
   36.6579   15.3606    0.8869 H   0  0  0  0  0  0  0  0  0  0  0  0
   36.6654   16.9497    1.6773 H   0  0  0  0  0  0  0  0  0  0  0  0
   38.1543   15.9679    1.6600 H   0  0  0  0  0  0  0  0  0  0  0  0
   37.3441   14.8084    5.6515 H   0  0  0  0  0  0  0  0  0  0  0  0
   36.3958   16.2102    6.1683 H   0  0  0  0  0  0  0  0  0  0  0  0
   36.1784   14.0483    7.5429 H   0  0  0  0  0  0  0  0  0  0  0  0
   34.9380   15.3435    7.5865 H   0  0  0  0  0  0  0  0  0  0  0  0
   34.3902   12.3587    5.8354 H   0  0  0  0  0  0  0  0  0  0  0  0
   31.3650   13.2475    7.6278 H   0  0  0  0  0  0  0  0  0  0  0  0
   29.4517   11.4772    9.4169 H   0  0  0  0  0  0  0  0  0  0  0  0
   30.0627    9.1964    8.1421 H   0  0  0  0  0  0  0  0  0  0  0  0
   32.0342    8.3983    6.8603 H   0  0  0  0  0  0  0  0  0  0  0  0
  1  2  1  0
  2  3  1  0
  2  4  1  0
  4  5  2  0
  4  6  1  0
  6  7  1  0
  7  8  1  0
  8  9  1  0
  9 10  2  0
  9 11  1  0
 11 12  1  0
 12 13  2  0
 13 14  1  0
 14 15  1  0
 14 16  2  0
 16 17  1  0
 17 18  2  0
 18 19  1  0
 18 12  1  0
  1 20  1  0
  1 21  1  0
  1 22  1  0
  3 23  1  0
  3 24  1  0
  3 25  1  0
  6 26  1  0
  6 27  1  0
  8 28  1  0
  8 29  1  0
 11 30  1  0
 13 31  1  0
 15 32  1  0
 16 33  1  0
 17 34  1  0
M  END
