LIG
     RDKit          3D

 42 44  0  0  0  0  0  0  0  0999 V2000
   29.3934   15.0300   11.1738 C   0  0  0  0  0  0  0  0  0  0  0  0
   29.4342   15.1777    9.7354 N   0  0  0  0  0  0  0  0  0  0  0  0
   28.2690   14.8750    8.9462 C   0  0  0  0  0  0  0  0  0  0  0  0
   28.3788   13.4067    8.6536 C   0  0  0  0  0  0  0  0  0  0  0  0
   29.8794   13.1859    8.5349 C   0  0  0  0  0  0  0  0  0  0  0  0
   30.1981   12.9931    7.1936 O   0  0  0  0  0  0  0  0  0  0  0  0
   31.0895   11.9776    7.0173 C   0  0  0  0  0  0  0  0  0  0  0  0
   30.9868   10.6772    7.4982 C   0  0  0  0  0  0  0  0  0  0  0  0
   31.9081    9.7184    7.0695 C   0  0  0  0  0  0  0  0  0  0  0  0
   32.9150   10.0628    6.1566 C   0  0  0  0  0  0  0  0  0  0  0  0
   33.0145   11.3780    5.7033 C   0  0  0  0  0  0  0  0  0  0  0  0
   33.8993   11.7373    4.6747 N   0  0  0  0  0  0  0  0  0  0  0  0
   33.9957   13.0406    4.1937 C   0  0  0  0  0  0  0  0  0  0  0  0
   33.8686   14.0629    4.8647 O   0  0  0  0  0  0  0  0  0  0  0  0
   34.0601   13.0714    2.6720 C   0  0  0  0  0  0  0  0  0  0  0  0
   34.1534   14.4745    2.1028 C   0  0  0  0  0  0  0  0  0  0  0  0
   34.7555   14.2025    0.7512 C   0  0  0  0  0  0  0  0  0  0  0  0
   35.7261   13.0838    1.0692 C   0  0  0  0  0  0  0  0  0  0  0  0
   35.1415   12.3122    2.1305 O   0  0  0  0  0  0  0  0  0  0  0  0
   32.1069   12.3208    6.1628 C   0  0  0  0  0  0  0  0  0  0  0  0
   30.4877   14.4145    9.2083 C   0  0  0  0  0  0  0  0  0  0  0  0
   31.6648   14.6700    9.4012 O   0  0  0  0  0  0  0  0  0  0  0  0
   28.3917   15.1849   11.5623 H   0  0  0  0  0  0  0  0  0  0  0  0
   30.1017   15.7342   11.6201 H   0  0  0  0  0  0  0  0  0  0  0  0
   29.7055   14.0294   11.4762 H   0  0  0  0  0  0  0  0  0  0  0  0
   28.3429   15.4521    8.0161 H   0  0  0  0  0  0  0  0  0  0  0  0
   27.3546   15.1707    9.4612 H   0  0  0  0  0  0  0  0  0  0  0  0
   27.8084   13.1104    7.7686 H   0  0  0  0  0  0  0  0  0  0  0  0
   28.0016   12.8567    9.5159 H   0  0  0  0  0  0  0  0  0  0  0  0
   30.1676   12.3366    9.1422 H   0  0  0  0  0  0  0  0  0  0  0  0
   30.1734   10.3684    8.1477 H   0  0  0  0  0  0  0  0  0  0  0  0
   31.8204    8.6897    7.4163 H   0  0  0  0  0  0  0  0  0  0  0  0
   33.5986    9.2954    5.8000 H   0  0  0  0  0  0  0  0  0  0  0  0
   34.3888   11.0127    4.1600 H   0  0  0  0  0  0  0  0  0  0  0  0
   33.1346   12.6046    2.3070 H   0  0  0  0  0  0  0  0  0  0  0  0
   33.1846   14.9802    2.0540 H   0  0  0  0  0  0  0  0  0  0  0  0
   34.8332   15.1017    2.6925 H   0  0  0  0  0  0  0  0  0  0  0  0
   35.2399   15.0726    0.3007 H   0  0  0  0  0  0  0  0  0  0  0  0
   33.9813   13.8433    0.0630 H   0  0  0  0  0  0  0  0  0  0  0  0
   35.9191   12.4377    0.2083 H   0  0  0  0  0  0  0  0  0  0  0  0
   36.6815   13.4787    1.4313 H   0  0  0  0  0  0  0  0  0  0  0  0
   32.0998   13.3456    5.8136 H   0  0  0  0  0  0  0  0  0  0  0  0
  1  2  1  0
  2  3  1  0
  3  4  1  0
  4  5  1  0
  5  6  1  0
  6  7  1  0
  7  8  2  0
  8  9  1  0
  9 10  2  0
 10 11  1  0
 11 12  1  0
 12 13  1  0
 13 14  2  0
 13 15  1  0
 15 16  1  0
 16 17  1  0
 17 18  1  0
 18 19  1  0
 11 20  2  0
  5 21  1  0
 21 22  2  0
 21  2  1  0
 20  7  1  0
 19 15  1  0
  1 23  1  0
  1 24  1  0
  1 25  1  0
  3 26  1  0
  3 27  1  0
  4 28  1  0
  4 29  1  0
  5 30  1  0
  8 31  1  0
  9 32  1  0
 10 33  1  0
 12 34  1  0
 15 35  1  0
 16 36  1  0
 16 37  1  0
 17 38  1  0
 17 39  1  0
 18 40  1  0
 18 41  1  0
 20 42  1  0
M  END
