LIG
     RDKit          3D

 38 39  0  0  0  0  0  0  0  0999 V2000
   34.4146   10.3206    5.0282 C   0  0  0  0  0  0  0  0  0  0  0  0
   33.2600   10.4341    5.9772 C   0  0  0  0  0  0  0  0  0  0  0  0
   32.6161    9.2737    6.4088 C   0  0  0  0  0  0  0  0  0  0  0  0
   31.5547    9.3169    7.3079 C   0  0  0  0  0  0  0  0  0  0  0  0
   31.0496   10.5425    7.7129 C   0  0  0  0  0  0  0  0  0  0  0  0
   31.6568   11.7207    7.2774 C   0  0  0  0  0  0  0  0  0  0  0  0
   31.1671   12.9898    7.4806 O   0  0  0  0  0  0  0  0  0  0  0  0
   30.2235   13.1014    8.5170 C   0  0  0  0  0  0  0  0  0  0  0  0
   28.8106   12.7772    8.0269 C   0  0  0  0  0  0  0  0  0  0  0  0
   28.3230   14.0881    7.4967 C   0  0  0  0  0  0  0  0  0  0  0  0
   28.8839   14.9976    8.4454 N   0  0  0  0  0  0  0  0  0  0  0  0
   28.5363   16.3630    8.3884 C   0  0  0  0  0  0  0  0  0  0  0  0
   30.0871   14.5435    8.9659 C   0  0  0  0  0  0  0  0  0  0  0  0
   30.8825   15.2046    9.6178 O   0  0  0  0  0  0  0  0  0  0  0  0
   32.8303   11.6504    6.5119 C   0  0  0  0  0  0  0  0  0  0  0  0
   33.6511   12.7905    6.4062 N   0  0  0  0  0  0  0  0  0  0  0  0
   34.1458   13.3769    7.5744 C   0  0  0  0  0  0  0  0  0  0  0  0
   33.8373   13.0355    8.7213 O   0  0  0  0  0  0  0  0  0  0  0  0
   35.1384   14.5021    7.3505 C   0  0  0  0  0  0  0  0  0  0  0  0
   35.6866   14.6535    5.6255 S   0  0  0  0  0  0  0  0  0  0  0  0
   34.1690   10.8241    4.0873 H   0  0  0  0  0  0  0  0  0  0  0  0
   35.3197   10.7702    5.4437 H   0  0  0  0  0  0  0  0  0  0  0  0
   34.6452    9.2761    4.7925 H   0  0  0  0  0  0  0  0  0  0  0  0
   32.9850    8.3102    6.0813 H   0  0  0  0  0  0  0  0  0  0  0  0
   31.1017    8.3922    7.6620 H   0  0  0  0  0  0  0  0  0  0  0  0
   30.1836   10.5262    8.3635 H   0  0  0  0  0  0  0  0  0  0  0  0
   30.5295   12.5289    9.3756 H   0  0  0  0  0  0  0  0  0  0  0  0
   28.1943   12.5155    8.8885 H   0  0  0  0  0  0  0  0  0  0  0  0
   28.7396   11.9966    7.2673 H   0  0  0  0  0  0  0  0  0  0  0  0
   28.7244   14.3065    6.5009 H   0  0  0  0  0  0  0  0  0  0  0  0
   27.2350   14.1581    7.4868 H   0  0  0  0  0  0  0  0  0  0  0  0
   29.2756   16.9915    8.8519 H   0  0  0  0  0  0  0  0  0  0  0  0
   28.4956   16.6553    7.3439 H   0  0  0  0  0  0  0  0  0  0  0  0
   27.5864   16.4456    8.9115 H   0  0  0  0  0  0  0  0  0  0  0  0
   34.3468   12.8050    5.6664 H   0  0  0  0  0  0  0  0  0  0  0  0
   36.0142   14.3165    7.9780 H   0  0  0  0  0  0  0  0  0  0  0  0
   34.6661   15.4314    7.6607 H   0  0  0  0  0  0  0  0  0  0  0  0
   35.6515   16.0020    5.5741 H   0  0  0  0  0  0  0  0  0  0  0  0
  1  2  1  0
  2  3  2  0
  3  4  1  0
  4  5  2  0
  5  6  1  0
  6  7  1  0
  7  8  1  0
  8  9  1  0
  9 10  1  0
 10 11  1  0
 11 12  1  0
 11 13  1  0
 13 14  2  0
  6 15  2  0
 15 16  1  0
 16 17  1  0
 17 18  2  0
 17 19  1  0
 19 20  1  0
 15  2  1  0
 13  8  1  0
  1 21  1  0
  1 22  1  0
  1 23  1  0
  3 24  1  0
  4 25  1  0
  5 26  1  0
  8 27  1  0
  9 28  1  0
  9 29  1  0
 10 30  1  0
 10 31  1  0
 12 32  1  0
 12 33  1  0
 12 34  1  0
 16 35  1  0
 19 36  1  0
 19 37  1  0
 20 38  1  0
M  END
