LIG
     RDKit          3D

 37 37  0  0  0  0  0  0  0  0999 V2000
   29.9390    8.9850    8.5900 C   0  0  0  0  0  0  0  0  0  0  0  0
   30.4800   10.1020    7.7350 C   0  0  0  0  0  0  0  0  0  0  0  0
   31.2880    9.8340    6.6350 C   0  0  0  0  0  0  0  0  0  0  0  0
   31.7330   10.8470    5.8070 C   0  0  0  0  0  0  0  0  0  0  0  0
   31.3810   12.1530    6.0670 C   0  0  0  0  0  0  0  0  0  0  0  0
   33.6520   12.7090    6.6590 N   0  0  0  0  0  0  0  0  0  0  0  0
   34.4250   13.2280    7.6390 C   0  0  0  0  0  0  0  0  0  0  0  0
   34.9120   12.5690    8.5560 O   0  0  0  0  0  0  0  0  0  0  0  0
   34.6680   14.7180    7.5670 C   0  0  0  0  0  0  0  0  0  0  0  0
   35.0470   15.1300    6.2680 O   0  0  0  0  0  0  0  0  0  0  0  0
   34.5630   16.4335    5.9419 C   0  0  0  0  0  0  0  0  0  0  0  0
   33.0629   16.5067    5.6095 C   0  0  0  0  0  0  0  0  0  0  0  0
   32.3157   17.1867    6.3167 O   0  0  0  0  0  0  0  0  0  0  0  0
   32.6048   15.7973    4.5023 N   0  0  0  0  0  0  0  0  0  0  0  0
   31.1707   15.7337    4.2743 C   0  0  0  0  0  0  0  0  0  0  0  0
   33.4122   14.8251    3.7813 C   0  0  0  0  0  0  0  0  0  0  0  0
   30.5900   12.4580    7.1610 C   0  0  0  0  0  0  0  0  0  0  0  0
   30.1520   11.4340    7.9910 C   0  0  0  0  0  0  0  0  0  0  0  0
   29.4280   11.6110    9.1450 O   0  0  0  0  0  0  0  0  0  0  0  0
   28.8688    9.1290    8.7625 H   0  0  0  0  0  0  0  0  0  0  0  0
   30.1061    8.0221    8.0994 H   0  0  0  0  0  0  0  0  0  0  0  0
   29.1577    8.4236    8.0693 H   0  0  0  0  0  0  0  0  0  0  0  0
   31.5849    8.8050    6.4081 H   0  0  0  0  0  0  0  0  0  0  0  0
   32.3589   10.5790    4.9582 H   0  0  0  0  0  0  0  0  0  0  0  0
   33.9710   12.3253    5.6861 H   0  0  0  0  0  0  0  0  0  0  0  0
   35.4073   15.0121    8.3167 H   0  0  0  0  0  0  0  0  0  0  0  0
   33.7211   15.2118    7.8022 H   0  0  0  0  0  0  0  0  0  0  0  0
   35.1191   16.8019    5.0730 H   0  0  0  0  0  0  0  0  0  0  0  0
   34.7805   17.1297    6.7612 H   0  0  0  0  0  0  0  0  0  0  0  0
   30.7915   14.7973    4.6943 H   0  0  0  0  0  0  0  0  0  0  0  0
   30.6469   16.5706    4.7438 H   0  0  0  0  0  0  0  0  0  0  0  0
   30.9755   15.7603    3.1982 H   0  0  0  0  0  0  0  0  0  0  0  0
   33.0426   14.7338    2.7556 H   0  0  0  0  0  0  0  0  0  0  0  0
   34.4605   15.1248    3.7373 H   0  0  0  0  0  0  0  0  0  0  0  0
   33.3308   13.8591    4.2880 H   0  0  0  0  0  0  0  0  0  0  0  0
   30.3028   13.4750    7.3888 H   0  0  0  0  0  0  0  0  0  0  0  0
   29.3857   10.7708    9.6249 H   0  0  0  0  0  0  0  0  0  0  0  0
  1  2  1  0
  2  3  4  0
  3  4  4  0
  4  5  4  0
  5  6  1  0
  6  7  1  0
  7  8  2  0
  7  9  1  0
  9 10  1  0
 10 11  1  0
 11 12  1  0
 12 13  2  0
 12 14  1  0
 14 15  1  0
 14 16  1  0
  5 17  4  0
 17 18  4  0
 18 19  1  0
 18  2  4  0
  1 20  1  0
  1 21  1  0
  1 22  1  0
  3 23  1  0
  4 24  1  0
  6 25  1  0
  9 26  1  0
  9 27  1  0
 11 28  1  0
 11 29  1  0
 15 30  1  0
 15 31  1  0
 15 32  1  0
 16 33  1  0
 16 34  1  0
 16 35  1  0
 17 36  1  0
 19 37  1  0
M  END
$$$$
