LIG
     RDKit          3D

 31 31  0  0  0  0  0  0  0  0999 V2000
   32.5714    9.4023    6.5097 C   0  0  0  0  0  0  0  0  0  0  0  0
   33.0376   10.6475    6.1209 C   0  0  0  0  0  0  0  0  0  0  0  0
   32.5236   11.7783    6.7473 C   0  0  0  0  0  0  0  0  0  0  0  0
   33.2263   12.9851    6.5868 N   0  0  0  0  0  0  0  0  0  0  0  0
   33.9366   13.4676    7.6907 C   0  0  0  0  0  0  0  0  0  0  0  0
   33.7929   13.0899    8.8548 O   0  0  0  0  0  0  0  0  0  0  0  0
   34.9836   14.5142    7.3034 C   0  0  0  0  0  0  0  0  0  0  0  0
   34.9346   14.8852    5.9305 O   0  0  0  0  0  0  0  0  0  0  0  0
   31.4606   11.6558    7.6547 C   0  0  0  0  0  0  0  0  0  0  0  0
   30.6781   12.7258    8.1184 N   0  0  0  0  0  0  0  0  0  0  0  0
   29.6993   13.1227    7.2136 C   0  0  0  0  0  0  0  0  0  0  0  0
   29.8115   13.1080    5.9893 O   0  0  0  0  0  0  0  0  0  0  0  0
   28.4165   13.5386    7.8632 C   0  0  0  0  0  0  0  0  0  0  0  0
   28.4594   14.9639    8.0914 C   0  0  0  0  0  0  0  0  0  0  0  0
   28.4902   16.0943    8.3307 N   0  0  0  0  0  0  0  0  0  0  0  0
   31.0131   10.4201    8.0543 C   0  0  0  0  0  0  0  0  0  0  0  0
   31.5824    9.3008    7.5010 C   0  0  0  0  0  0  0  0  0  0  0  0
   31.1572    8.0216    8.0877 C   0  0  0  0  0  0  0  0  0  0  0  0
   33.0346    8.5110    6.0992 H   0  0  0  0  0  0  0  0  0  0  0  0
   33.8695   10.7164    5.4267 H   0  0  0  0  0  0  0  0  0  0  0  0
   33.7842   13.0987    5.7429 H   0  0  0  0  0  0  0  0  0  0  0  0
   35.9767   14.1126    7.5197 H   0  0  0  0  0  0  0  0  0  0  0  0
   34.7948   15.3907    7.9201 H   0  0  0  0  0  0  0  0  0  0  0  0
   35.0850   15.8571    5.8849 H   0  0  0  0  0  0  0  0  0  0  0  0
   30.3126   12.5613    9.0566 H   0  0  0  0  0  0  0  0  0  0  0  0
   28.2622   12.9965    8.7999 H   0  0  0  0  0  0  0  0  0  0  0  0
   27.5898   13.2651    7.1992 H   0  0  0  0  0  0  0  0  0  0  0  0
   30.2175   10.3120    8.7850 H   0  0  0  0  0  0  0  0  0  0  0  0
   31.6560    7.8851    9.0489 H   0  0  0  0  0  0  0  0  0  0  0  0
   30.0742    7.9769    8.2424 H   0  0  0  0  0  0  0  0  0  0  0  0
   31.4429    7.2547    7.3895 H   0  0  0  0  0  0  0  0  0  0  0  0
  1  2  2  0
  2  3  1  0
  3  4  1  0
  4  5  1  0
  5  6  2  0
  5  7  1  0
  7  8  1  0
  3  9  2  0
  9 10  1  0
 10 11  1  0
 11 12  2  0
 11 13  1  0
 13 14  1  0
 14 15  3  0
  9 16  1  0
 16 17  2  0
 17 18  1  0
 17  1  1  0
  1 19  1  0
  2 20  1  0
  4 21  1  0
  7 22  1  0
  7 23  1  0
  8 24  1  0
 10 25  1  0
 13 26  1  0
 13 27  1  0
 16 28  1  0
 18 29  1  0
 18 30  1  0
 18 31  1  0
M  END
