LIG
     RDKit          3D

 45 46  0  0  0  0  0  0  0  0999 V2000
   28.5184   14.6582   10.9409 C   0  0  0  0  0  0  0  0  0  0  0  0
   29.8565   14.8048   10.4074 N   0  0  0  0  0  0  0  0  0  0  0  0
   30.8095   15.5142   11.2464 C   0  0  0  0  0  0  0  0  0  0  0  0
   30.3641   13.8556    9.5285 C   0  0  0  0  0  0  0  0  0  0  0  0
   31.5826   13.6866    9.4378 O   0  0  0  0  0  0  0  0  0  0  0  0
   29.3751   13.0704    8.6309 C   0  0  0  0  0  0  0  0  0  0  0  0
   29.5204   11.6554    8.5834 O   0  0  0  0  0  0  0  0  0  0  0  0
   30.5698   11.0545    7.9712 C   0  0  0  0  0  0  0  0  0  0  0  0
   31.3311   11.6922    7.0070 C   0  0  0  0  0  0  0  0  0  0  0  0
   32.3467   11.0248    6.3262 C   0  0  0  0  0  0  0  0  0  0  0  0
   33.1419   11.5774    5.3642 O   0  0  0  0  0  0  0  0  0  0  0  0
   32.8818   12.9237    4.9756 C   0  0  0  0  0  0  0  0  0  0  0  0
   33.4985   13.8705    5.9815 C   0  0  0  0  0  0  0  0  0  0  0  0
   33.0925   13.8744    7.1433 O   0  0  0  0  0  0  0  0  0  0  0  0
   34.5461   14.6793    5.6087 N   0  0  0  0  0  0  0  0  0  0  0  0
   35.5070   14.9058    6.6837 C   0  0  0  0  0  0  0  0  0  0  0  0
   36.5636   13.8050    6.5557 C   0  0  0  0  0  0  0  0  0  0  0  0
   37.2722   13.9762    5.3067 O   0  0  0  0  0  0  0  0  0  0  0  0
   36.3637   13.7940    4.2024 C   0  0  0  0  0  0  0  0  0  0  0  0
   35.1730   14.7565    4.2875 C   0  0  0  0  0  0  0  0  0  0  0  0
   32.5712    9.6774    6.5816 C   0  0  0  0  0  0  0  0  0  0  0  0
   31.8017    9.0190    7.5370 C   0  0  0  0  0  0  0  0  0  0  0  0
   30.8306    9.7106    8.2487 C   0  0  0  0  0  0  0  0  0  0  0  0
   30.1739    9.0438    9.2099 F   0  0  0  0  0  0  0  0  0  0  0  0
   27.8155   15.1042   10.2343 H   0  0  0  0  0  0  0  0  0  0  0  0
   28.2566   13.6106   11.0791 H   0  0  0  0  0  0  0  0  0  0  0  0
   28.4619   15.1358   11.9200 H   0  0  0  0  0  0  0  0  0  0  0  0
   30.9815   14.9142   12.1336 H   0  0  0  0  0  0  0  0  0  0  0  0
   30.4311   16.4860   11.5553 H   0  0  0  0  0  0  0  0  0  0  0  0
   31.7597   15.6661   10.7285 H   0  0  0  0  0  0  0  0  0  0  0  0
   29.4075   13.5083    7.6263 H   0  0  0  0  0  0  0  0  0  0  0  0
   28.3465   13.2455    8.9487 H   0  0  0  0  0  0  0  0  0  0  0  0
   31.1142   12.7259    6.7910 H   0  0  0  0  0  0  0  0  0  0  0  0
   33.3190   13.0285    3.9844 H   0  0  0  0  0  0  0  0  0  0  0  0
   31.8176   13.1454    4.8428 H   0  0  0  0  0  0  0  0  0  0  0  0
   35.9541   15.8814    6.5163 H   0  0  0  0  0  0  0  0  0  0  0  0
   35.0502   14.8889    7.6769 H   0  0  0  0  0  0  0  0  0  0  0  0
   37.2862   13.8154    7.3738 H   0  0  0  0  0  0  0  0  0  0  0  0
   36.1046   12.8140    6.5452 H   0  0  0  0  0  0  0  0  0  0  0  0
   36.9233   13.9685    3.2782 H   0  0  0  0  0  0  0  0  0  0  0  0
   36.0268   12.7506    4.1964 H   0  0  0  0  0  0  0  0  0  0  0  0
   34.4517   14.5828    3.4871 H   0  0  0  0  0  0  0  0  0  0  0  0
   35.5478   15.7748    4.1594 H   0  0  0  0  0  0  0  0  0  0  0  0
   33.3443    9.1351    6.0437 H   0  0  0  0  0  0  0  0  0  0  0  0
   31.9571    7.9708    7.7575 H   0  0  0  0  0  0  0  0  0  0  0  0
  1  2  1  0
  2  3  1  0
  2  4  1  0
  4  5  2  0
  4  6  1  0
  6  7  1  0
  7  8  1  0
  8  9  2  0
  9 10  1  0
 10 11  1  0
 11 12  1  0
 12 13  1  0
 13 14  2  0
 13 15  1  0
 15 16  1  0
 16 17  1  0
 17 18  1  0
 18 19  1  0
 19 20  1  0
 10 21  2  0
 21 22  1  0
 22 23  2  0
 23 24  1  0
 23  8  1  0
 20 15  1  0
  1 25  1  0
  1 26  1  0
  1 27  1  0
  3 28  1  0
  3 29  1  0
  3 30  1  0
  6 31  1  0
  6 32  1  0
  9 33  1  0
 12 34  1  0
 12 35  1  0
 16 36  1  0
 16 37  1  0
 17 38  1  0
 17 39  1  0
 19 40  1  0
 19 41  1  0
 20 42  1  0
 20 43  1  0
 21 44  1  0
 22 45  1  0
M  END
