LIG
     RDKit          3D

 41 43  0  0  0  0  0  0  0  0999 V2000
   31.0897   18.3325    8.3037 C   0  0  0  0  0  0  0  0  0  0  0  0
   31.9193   17.1691    8.0842 N   0  0  0  0  0  0  0  0  0  0  0  0
   32.7539   16.6208    9.1008 C   0  0  0  0  0  0  0  0  0  0  0  0
   32.7513   15.1292    8.8470 C   0  0  0  0  0  0  0  0  0  0  0  0
   32.5395   15.0049    7.3571 C   0  0  0  0  0  0  0  0  0  0  0  0
   31.8037   13.8387    7.0693 O   0  0  0  0  0  0  0  0  0  0  0  0
   32.4926   12.6944    6.8582 C   0  0  0  0  0  0  0  0  0  0  0  0
   33.7970   12.3728    7.1940 C   0  0  0  0  0  0  0  0  0  0  0  0
   34.3851   11.1797    6.9085 N   0  0  0  0  0  0  0  0  0  0  0  0
   33.6747   10.3082    6.1651 C   0  0  0  0  0  0  0  0  0  0  0  0
   32.3846   10.5795    5.7612 C   0  0  0  0  0  0  0  0  0  0  0  0
   31.8252    9.9764    4.6160 N   0  0  0  0  0  0  0  0  0  0  0  0
   31.7033   10.9197    3.5693 C   0  0  0  0  0  0  0  0  0  0  0  0
   30.5688   11.3151    3.2919 O   0  0  0  0  0  0  0  0  0  0  0  0
   32.9862   11.4017    2.7860 C   0  0  0  0  0  0  0  0  0  0  0  0
   32.6829   12.5744    1.8485 C   0  0  0  0  0  0  0  0  0  0  0  0
   33.0201   13.7639    2.7109 C   0  0  0  0  0  0  0  0  0  0  0  0
   34.2340   13.2613    3.4544 C   0  0  0  0  0  0  0  0  0  0  0  0
   34.1000   11.8363    3.5657 O   0  0  0  0  0  0  0  0  0  0  0  0
   31.7584   11.7344    6.2034 C   0  0  0  0  0  0  0  0  0  0  0  0
   31.7285   16.2614    7.0505 C   0  0  0  0  0  0  0  0  0  0  0  0
   31.0238   16.4353    6.0721 O   0  0  0  0  0  0  0  0  0  0  0  0
   30.2345   18.3460    7.6237 H   0  0  0  0  0  0  0  0  0  0  0  0
   31.7051   19.2181    8.1207 H   0  0  0  0  0  0  0  0  0  0  0  0
   30.7606   18.3567    9.3410 H   0  0  0  0  0  0  0  0  0  0  0  0
   32.4010   16.8909   10.0954 H   0  0  0  0  0  0  0  0  0  0  0  0
   33.7566   17.0426    8.9691 H   0  0  0  0  0  0  0  0  0  0  0  0
   31.9414   14.6182    9.3563 H   0  0  0  0  0  0  0  0  0  0  0  0
   33.6796   14.6643    9.1915 H   0  0  0  0  0  0  0  0  0  0  0  0
   33.4715   15.0795    6.7817 H   0  0  0  0  0  0  0  0  0  0  0  0
   34.4427   13.0520    7.7388 H   0  0  0  0  0  0  0  0  0  0  0  0
   34.2178    9.4356    5.8196 H   0  0  0  0  0  0  0  0  0  0  0  0
   30.8501    9.7524    4.8123 H   0  0  0  0  0  0  0  0  0  0  0  0
   33.3033   10.5325    2.1974 H   0  0  0  0  0  0  0  0  0  0  0  0
   33.3634   12.5431    0.9885 H   0  0  0  0  0  0  0  0  0  0  0  0
   31.6594   12.6051    1.4684 H   0  0  0  0  0  0  0  0  0  0  0  0
   33.2141   14.6785    2.1448 H   0  0  0  0  0  0  0  0  0  0  0  0
   32.2028   13.9620    3.4143 H   0  0  0  0  0  0  0  0  0  0  0  0
   35.1527   13.4631    2.8935 H   0  0  0  0  0  0  0  0  0  0  0  0
   34.3333   13.7062    4.4477 H   0  0  0  0  0  0  0  0  0  0  0  0
   30.7670   11.9894    5.8411 H   0  0  0  0  0  0  0  0  0  0  0  0
  1  2  1  0
  2  3  1  0
  3  4  1  0
  4  5  1  0
  5  6  1  0
  6  7  1  0
  7  8  2  0
  8  9  1  0
  9 10  2  0
 10 11  1  0
 11 12  1  0
 12 13  1  0
 13 14  2  0
 13 15  1  0
 15 16  1  0
 16 17  1  0
 17 18  1  0
 18 19  1  0
 11 20  2  0
  5 21  1  0
 21 22  2  0
 21  2  1  0
 20  7  1  0
 19 15  1  0
  1 23  1  0
  1 24  1  0
  1 25  1  0
  3 26  1  0
  3 27  1  0
  4 28  1  0
  4 29  1  0
  5 30  1  0
  8 31  1  0
 10 32  1  0
 12 33  1  0
 15 34  1  0
 16 35  1  0
 16 36  1  0
 17 37  1  0
 17 38  1  0
 18 39  1  0
 18 40  1  0
 20 41  1  0
M  END
