LIG
     RDKit          3D

 37 37  0  0  0  0  0  0  0  0999 V2000
   29.3990   13.5140    6.5850 C   0  0  0  0  0  0  0  0  0  0  0  0
   29.3000   13.3530    7.8990 C   0  0  0  0  0  0  0  0  0  0  0  0
   28.5340   14.0390    8.5970 O   0  0  0  0  0  0  0  0  0  0  0  0
   30.0510   12.3330    8.4300 N   0  0  0  0  0  0  0  0  0  0  0  0
   30.9750   11.4650    7.7900 C   0  0  0  0  0  0  0  0  0  0  0  0
   30.9610   10.1240    8.1440 C   0  0  0  0  0  0  0  0  0  0  0  0
   31.8970    9.2580    7.6020 C   0  0  0  0  0  0  0  0  0  0  0  0
   32.8430    9.7180    6.6980 C   0  0  0  0  0  0  0  0  0  0  0  0
   32.8390   11.0500    6.3070 C   0  0  0  0  0  0  0  0  0  0  0  0
   33.6960   11.5950    5.3080 N   0  0  0  0  0  0  0  0  0  0  0  0
   34.7220   11.0190    4.6240 C   0  0  0  0  0  0  0  0  0  0  0  0
   34.4770    9.6170    4.1420 C   0  0  0  0  0  0  0  0  0  0  0  0
   35.7630   11.6170    4.3630 O   0  0  0  0  0  0  0  0  0  0  0  0
   31.9160   11.9260    6.8680 C   0  0  0  0  0  0  0  0  0  0  0  0
   32.6320   12.9182    8.3135 C   0  0  0  0  0  0  0  0  0  0  0  0
   34.9080   14.6080    8.8210 N   0  0  0  0  0  0  0  0  0  0  0  0
   33.5770   13.9020    8.2740 S   0  0  0  0  0  0  0  0  0  0  0  0
   34.0500   13.6360    6.5860 C   0  0  0  0  0  0  0  0  0  0  0  0
   32.5040   14.8410    8.3200 O   0  0  0  0  0  0  0  0  0  0  0  0
   33.4410   12.6200    8.8870 O   0  0  0  0  0  0  0  0  0  0  0  0
   28.6317   14.2094    6.1353 H   0  0  0  0  0  0  0  0  0  0  0  0
   30.3953   13.9188    6.2475 H   0  0  0  0  0  0  0  0  0  0  0  0
   29.5971   14.5780    6.2689 H   0  0  0  0  0  0  0  0  0  0  0  0
   29.9071   12.1959    9.4331 H   0  0  0  0  0  0  0  0  0  0  0  0
   30.2577    9.7085    8.8493 H   0  0  0  0  0  0  0  0  0  0  0  0
   31.9000    8.2079    7.8988 H   0  0  0  0  0  0  0  0  0  0  0  0
   33.5612    9.0016    6.3206 H   0  0  0  0  0  0  0  0  0  0  0  0
   33.4754   12.5691    5.0732 H   0  0  0  0  0  0  0  0  0  0  0  0
   34.7820    8.9045    4.9155 H   0  0  0  0  0  0  0  0  0  0  0  0
   35.4116    9.0479    4.0984 H   0  0  0  0  0  0  0  0  0  0  0  0
   35.0600    9.4351    3.2339 H   0  0  0  0  0  0  0  0  0  0  0  0
   31.8357   13.6496    8.4898 H   0  0  0  0  0  0  0  0  0  0  0  0
   32.8702   12.3966    9.2472 H   0  0  0  0  0  0  0  0  0  0  0  0
   35.7274   14.3642    8.2237 H   0  0  0  0  0  0  0  0  0  0  0  0
   34.0293   12.5599    6.3939 H   0  0  0  0  0  0  0  0  0  0  0  0
   33.3398   14.1406    5.9273 H   0  0  0  0  0  0  0  0  0  0  0  0
   33.2279   13.1472    6.0576 H   0  0  0  0  0  0  0  0  0  0  0  0
  1  2  1  0
  2  3  2  0
  2  4  1  0
  4  5  1  0
  5  6  4  0
  6  7  4  0
  7  8  4  0
  8  9  4  0
  9 10  1  0
 10 11  1  0
 11 12  1  0
 11 13  2  0
  9 14  4  0
 14 15  1  0
 15 16  1  0
 16 17  1  0
 17 18  1  0
 17 19  2  0
 17 20  2  0
 14  5  4  0
  1 21  1  0
  1 22  1  0
  1 23  1  0
  4 24  1  0
  6 25  1  0
  7 26  1  0
  8 27  1  0
 10 28  1  0
 12 29  1  0
 12 30  1  0
 12 31  1  0
 15 32  1  0
 15 33  1  0
 16 34  1  0
 18 35  1  0
 18 36  1  0
 18 37  1  0
M  END
$$$$
LIG
     RDKit          3D

 37 37  0  0  0  0  0  0  0  0999 V2000
   34.4770    9.6170    4.1420 C   0  0  0  0  0  0  0  0  0  0  0  0
   34.7220   11.0190    4.6240 C   0  0  0  0  0  0  0  0  0  0  0  0
   35.7630   11.6170    4.3630 O   0  0  0  0  0  0  0  0  0  0  0  0
   33.6960   11.5950    5.3080 N   0  0  0  0  0  0  0  0  0  0  0  0
   32.8390   11.0500    6.3070 C   0  0  0  0  0  0  0  0  0  0  0  0
   32.8430    9.7180    6.6980 C   0  0  0  0  0  0  0  0  0  0  0  0
   31.8970    9.2580    7.6020 C   0  0  0  0  0  0  0  0  0  0  0  0
   30.9610   10.1240    8.1440 C   0  0  0  0  0  0  0  0  0  0  0  0
   30.9750   11.4650    7.7900 C   0  0  0  0  0  0  0  0  0  0  0  0
   30.0510   12.3330    8.4300 N   0  0  0  0  0  0  0  0  0  0  0  0
   29.3000   13.3530    7.8990 C   0  0  0  0  0  0  0  0  0  0  0  0
   29.3990   13.5140    6.5850 C   0  0  0  0  0  0  0  0  0  0  0  0
   28.5340   14.0390    8.5970 O   0  0  0  0  0  0  0  0  0  0  0  0
   31.9160   11.9260    6.8680 C   0  0  0  0  0  0  0  0  0  0  0  0
   33.2912   12.2719    8.4793 C   0  0  0  0  0  0  0  0  0  0  0  0
   34.9080   14.6080    8.8210 N   0  0  0  0  0  0  0  0  0  0  0  0
   33.5770   13.9020    8.2740 S   0  0  0  0  0  0  0  0  0  0  0  0
   34.0500   13.6360    6.5860 C   0  0  0  0  0  0  0  0  0  0  0  0
   32.5040   14.8410    8.3200 O   0  0  0  0  0  0  0  0  0  0  0  0
   33.4410   12.6200    8.8870 O   0  0  0  0  0  0  0  0  0  0  0  0
   33.4440    9.3261    4.3594 H   0  0  0  0  0  0  0  0  0  0  0  0
   34.6329    9.5615    3.0601 H   0  0  0  0  0  0  0  0  0  0  0  0
   33.6820    9.6099    3.3895 H   0  0  0  0  0  0  0  0  0  0  0  0
   33.4755   12.5622    4.9979 H   0  0  0  0  0  0  0  0  0  0  0  0
   33.5466    8.9972    6.3053 H   0  0  0  0  0  0  0  0  0  0  0  0
   31.8724    8.1996    7.8656 H   0  0  0  0  0  0  0  0  0  0  0  0
   30.2319    9.7057    8.8246 H   0  0  0  0  0  0  0  0  0  0  0  0
   29.9437   12.2054    9.4404 H   0  0  0  0  0  0  0  0  0  0  0  0
   30.4559   13.4705    6.1950 H   0  0  0  0  0  0  0  0  0  0  0  0
   30.0380   14.3885    6.2687 H   0  0  0  0  0  0  0  0  0  0  0  0
   29.8606   12.6358    6.0493 H   0  0  0  0  0  0  0  0  0  0  0  0
   34.2726   11.8007    8.3620 H   0  0  0  0  0  0  0  0  0  0  0  0
   32.9938   11.9343    9.4798 H   0  0  0  0  0  0  0  0  0  0  0  0
   35.5623   14.8774    8.0623 H   0  0  0  0  0  0  0  0  0  0  0  0
   34.4395   12.6207    6.4791 H   0  0  0  0  0  0  0  0  0  0  0  0
   33.4503   12.8113    6.1916 H   0  0  0  0  0  0  0  0  0  0  0  0
   33.1823   13.7923    5.9408 H   0  0  0  0  0  0  0  0  0  0  0  0
  1  2  1  0
  2  3  2  0
  2  4  1  0
  4  5  1  0
  5  6  4  0
  6  7  4  0
  7  8  4  0
  8  9  4  0
  9 10  1  0
 10 11  1  0
 11 12  1  0
 11 13  2  0
  9 14  4  0
 14 15  1  0
 15 16  1  0
 16 17  1  0
 17 18  1  0
 17 19  2  0
 17 20  2  0
 14  5  4  0
  1 21  1  0
  1 22  1  0
  1 23  1  0
  4 24  1  0
  6 25  1  0
  7 26  1  0
  8 27  1  0
 10 28  1  0
 12 29  1  0
 12 30  1  0
 12 31  1  0
 15 32  1  0
 15 33  1  0
 16 34  1  0
 18 35  1  0
 18 36  1  0
 18 37  1  0
M  END
$$$$
LIG
     RDKit          3D

 37 37  0  0  0  0  0  0  0  0999 V2000
   34.4770    9.6170    4.1420 C   0  0  0  0  0  0  0  0  0  0  0  0
   34.7220   11.0190    4.6240 C   0  0  0  0  0  0  0  0  0  0  0  0
   35.7630   11.6170    4.3630 O   0  0  0  0  0  0  0  0  0  0  0  0
   33.6960   11.5950    5.3080 N   0  0  0  0  0  0  0  0  0  0  0  0
   32.8390   11.0500    6.3070 C   0  0  0  0  0  0  0  0  0  0  0  0
   32.8430    9.7180    6.6980 C   0  0  0  0  0  0  0  0  0  0  0  0
   31.8970    9.2580    7.6020 C   0  0  0  0  0  0  0  0  0  0  0  0
   30.9610   10.1240    8.1440 C   0  0  0  0  0  0  0  0  0  0  0  0
   30.9750   11.4650    7.7900 C   0  0  0  0  0  0  0  0  0  0  0  0
   30.0510   12.3330    8.4300 N   0  0  0  0  0  0  0  0  0  0  0  0
   29.3000   13.3530    7.8990 C   0  0  0  0  0  0  0  0  0  0  0  0
   29.3990   13.5140    6.5850 C   0  0  0  0  0  0  0  0  0  0  0  0
   28.5340   14.0390    8.5970 O   0  0  0  0  0  0  0  0  0  0  0  0
   31.9160   11.9260    6.8680 C   0  0  0  0  0  0  0  0  0  0  0  0
   32.7098   12.7445    8.5084 C   0  0  0  0  0  0  0  0  0  0  0  0
   34.9080   14.6080    8.8210 N   0  0  0  0  0  0  0  0  0  0  0  0
   33.5770   13.9020    8.2740 S   0  0  0  0  0  0  0  0  0  0  0  0
   34.0500   13.6360    6.5860 C   0  0  0  0  0  0  0  0  0  0  0  0
   32.5040   14.8410    8.3200 O   0  0  0  0  0  0  0  0  0  0  0  0
   33.4410   12.6200    8.8870 O   0  0  0  0  0  0  0  0  0  0  0  0
   34.3114    8.9524    4.9957 H   0  0  0  0  0  0  0  0  0  0  0  0
   33.5884    9.5951    3.5028 H   0  0  0  0  0  0  0  0  0  0  0  0
   35.3323    9.2637    3.5571 H   0  0  0  0  0  0  0  0  0  0  0  0
   33.4861   12.5664    5.0484 H   0  0  0  0  0  0  0  0  0  0  0  0
   33.5566    9.0023    6.3134 H   0  0  0  0  0  0  0  0  0  0  0  0
   31.9127    8.2080    7.9063 H   0  0  0  0  0  0  0  0  0  0  0  0
   30.2664    9.7286    8.8742 H   0  0  0  0  0  0  0  0  0  0  0  0
   30.2142   12.4334    9.4455 H   0  0  0  0  0  0  0  0  0  0  0  0
   30.4338   13.3189    6.1841 H   0  0  0  0  0  0  0  0  0  0  0  0
   29.1431   14.5543    6.2382 H   0  0  0  0  0  0  0  0  0  0  0  0
   28.7459   12.8362    5.9601 H   0  0  0  0  0  0  0  0  0  0  0  0
   33.2886   12.1155    9.1925 H   0  0  0  0  0  0  0  0  0  0  0  0
   31.9189   13.2587    9.0595 H   0  0  0  0  0  0  0  0  0  0  0  0
   35.4020   15.2300    8.1591 H   0  0  0  0  0  0  0  0  0  0  0  0
   34.0090   12.5687    6.3557 H   0  0  0  0  0  0  0  0  0  0  0  0
   35.0566   14.0329    6.4302 H   0  0  0  0  0  0  0  0  0  0  0  0
   34.9383   12.9976    6.5809 H   0  0  0  0  0  0  0  0  0  0  0  0
  1  2  1  0
  2  3  2  0
  2  4  1  0
  4  5  1  0
  5  6  4  0
  6  7  4  0
  7  8  4  0
  8  9  4  0
  9 10  1  0
 10 11  1  0
 11 12  1  0
 11 13  2  0
  9 14  4  0
 14 15  1  0
 15 16  1  0
 16 17  1  0
 17 18  1  0
 17 19  2  0
 17 20  2  0
 14  5  4  0
  1 21  1  0
  1 22  1  0
  1 23  1  0
  4 24  1  0
  6 25  1  0
  7 26  1  0
  8 27  1  0
 10 28  1  0
 12 29  1  0
 12 30  1  0
 12 31  1  0
 15 32  1  0
 15 33  1  0
 16 34  1  0
 18 35  1  0
 18 36  1  0
 18 37  1  0
M  END
$$$$
LIG
     RDKit          3D

 37 37  0  0  0  0  0  0  0  0999 V2000
   34.4770    9.6170    4.1420 C   0  0  0  0  0  0  0  0  0  0  0  0
   34.7220   11.0190    4.6240 C   0  0  0  0  0  0  0  0  0  0  0  0
   35.7630   11.6170    4.3630 O   0  0  0  0  0  0  0  0  0  0  0  0
   33.6960   11.5950    5.3080 N   0  0  0  0  0  0  0  0  0  0  0  0
   32.8390   11.0500    6.3070 C   0  0  0  0  0  0  0  0  0  0  0  0
   32.8430    9.7180    6.6980 C   0  0  0  0  0  0  0  0  0  0  0  0
   31.8970    9.2580    7.6020 C   0  0  0  0  0  0  0  0  0  0  0  0
   30.9610   10.1240    8.1440 C   0  0  0  0  0  0  0  0  0  0  0  0
   30.9750   11.4650    7.7900 C   0  0  0  0  0  0  0  0  0  0  0  0
   30.0510   12.3330    8.4300 N   0  0  0  0  0  0  0  0  0  0  0  0
   29.3000   13.3530    7.8990 C   0  0  0  0  0  0  0  0  0  0  0  0
   29.3990   13.5140    6.5850 C   0  0  0  0  0  0  0  0  0  0  0  0
   28.5340   14.0390    8.5970 O   0  0  0  0  0  0  0  0  0  0  0  0
   31.9160   11.9260    6.8680 C   0  0  0  0  0  0  0  0  0  0  0  0
   33.2928   12.2715    8.4780 C   0  0  0  0  0  0  0  0  0  0  0  0
   34.9080   14.6080    8.8210 N   0  0  0  0  0  0  0  0  0  0  0  0
   33.5770   13.9020    8.2740 S   0  0  0  0  0  0  0  0  0  0  0  0
   34.0500   13.6360    6.5860 C   0  0  0  0  0  0  0  0  0  0  0  0
   33.4410   12.6200    8.8870 O   0  0  0  0  0  0  0  0  0  0  0  0
   32.5040   14.8410    8.3200 O   0  0  0  0  0  0  0  0  0  0  0  0
   34.9437    8.9029    4.8283 H   0  0  0  0  0  0  0  0  0  0  0  0
   34.9132    9.4779    3.1478 H   0  0  0  0  0  0  0  0  0  0  0  0
   33.4017    9.4158    4.1086 H   0  0  0  0  0  0  0  0  0  0  0  0
   33.4768   12.5632    5.0002 H   0  0  0  0  0  0  0  0  0  0  0  0
   33.5460    8.9970    6.3041 H   0  0  0  0  0  0  0  0  0  0  0  0
   31.8725    8.1996    7.8657 H   0  0  0  0  0  0  0  0  0  0  0  0
   30.2317    9.7056    8.8245 H   0  0  0  0  0  0  0  0  0  0  0  0
   29.9395   12.2002    9.4395 H   0  0  0  0  0  0  0  0  0  0  0  0
   30.1618   14.2773    6.2520 H   0  0  0  0  0  0  0  0  0  0  0  0
   30.4290   13.3065    6.1785 H   0  0  0  0  0  0  0  0  0  0  0  0
   29.7072   12.5800    6.0341 H   0  0  0  0  0  0  0  0  0  0  0  0
   32.9973   11.9316    9.4784 H   0  0  0  0  0  0  0  0  0  0  0  0
   34.2746   11.8011    8.3586 H   0  0  0  0  0  0  0  0  0  0  0  0
   34.9977   14.5538    9.8532 H   0  0  0  0  0  0  0  0  0  0  0  0
   35.0483   14.0582    6.4433 H   0  0  0  0  0  0  0  0  0  0  0  0
   33.3388   14.1424    5.9291 H   0  0  0  0  0  0  0  0  0  0  0  0
   34.0714   12.5620    6.3859 H   0  0  0  0  0  0  0  0  0  0  0  0
  1  2  1  0
  2  3  2  0
  2  4  1  0
  4  5  1  0
  5  6  4  0
  6  7  4  0
  7  8  4  0
  8  9  4  0
  9 10  1  0
 10 11  1  0
 11 12  1  0
 11 13  2  0
  9 14  4  0
 14 15  1  0
 15 16  1  0
 16 17  1  0
 17 18  1  0
 17 19  2  0
 17 20  2  0
 14  5  4  0
  1 21  1  0
  1 22  1  0
  1 23  1  0
  4 24  1  0
  6 25  1  0
  7 26  1  0
  8 27  1  0
 10 28  1  0
 12 29  1  0
 12 30  1  0
 12 31  1  0
 15 32  1  0
 15 33  1  0
 16 34  1  0
 18 35  1  0
 18 36  1  0
 18 37  1  0
M  END
$$$$
LIG
     RDKit          3D

 37 37  0  0  0  0  0  0  0  0999 V2000
   29.3990   13.5140    6.5850 C   0  0  0  0  0  0  0  0  0  0  0  0
   29.3000   13.3530    7.8990 C   0  0  0  0  0  0  0  0  0  0  0  0
   28.5340   14.0390    8.5970 O   0  0  0  0  0  0  0  0  0  0  0  0
   30.0510   12.3330    8.4300 N   0  0  0  0  0  0  0  0  0  0  0  0
   30.9750   11.4650    7.7900 C   0  0  0  0  0  0  0  0  0  0  0  0
   30.9610   10.1240    8.1440 C   0  0  0  0  0  0  0  0  0  0  0  0
   31.8970    9.2580    7.6020 C   0  0  0  0  0  0  0  0  0  0  0  0
   32.8430    9.7180    6.6980 C   0  0  0  0  0  0  0  0  0  0  0  0
   32.8390   11.0500    6.3070 C   0  0  0  0  0  0  0  0  0  0  0  0
   33.6960   11.5950    5.3080 N   0  0  0  0  0  0  0  0  0  0  0  0
   34.7220   11.0190    4.6240 C   0  0  0  0  0  0  0  0  0  0  0  0
   34.4770    9.6170    4.1420 C   0  0  0  0  0  0  0  0  0  0  0  0
   35.7630   11.6170    4.3630 O   0  0  0  0  0  0  0  0  0  0  0  0
   31.9160   11.9260    6.8680 C   0  0  0  0  0  0  0  0  0  0  0  0
   33.5269   12.2056    8.2726 C   0  0  0  0  0  0  0  0  0  0  0  0
   34.9080   14.6080    8.8210 N   0  0  0  0  0  0  0  0  0  0  0  0
   33.5770   13.9020    8.2740 S   0  0  0  0  0  0  0  0  0  0  0  0
   34.0500   13.6360    6.5860 C   0  0  0  0  0  0  0  0  0  0  0  0
   33.4410   12.6200    8.8870 O   0  0  0  0  0  0  0  0  0  0  0  0
   32.5040   14.8410    8.3200 O   0  0  0  0  0  0  0  0  0  0  0  0
   29.7217   12.5872    6.0301 H   0  0  0  0  0  0  0  0  0  0  0  0
   30.1251   14.3164    6.2675 H   0  0  0  0  0  0  0  0  0  0  0  0
   30.4339   13.3290    6.1779 H   0  0  0  0  0  0  0  0  0  0  0  0
   29.9639   12.2428    9.4557 H   0  0  0  0  0  0  0  0  0  0  0  0
   30.2252    9.7052    8.8157 H   0  0  0  0  0  0  0  0  0  0  0  0
   31.8716    8.1998    7.8664 H   0  0  0  0  0  0  0  0  0  0  0  0
   33.5536    8.9979    6.3136 H   0  0  0  0  0  0  0  0  0  0  0  0
   33.4914   12.5679    5.0390 H   0  0  0  0  0  0  0  0  0  0  0  0
   35.4046    9.1821    3.7556 H   0  0  0  0  0  0  0  0  0  0  0  0
   34.7384    9.5358    3.0821 H   0  0  0  0  0  0  0  0  0  0  0  0
   33.7378    9.6272    3.3352 H   0  0  0  0  0  0  0  0  0  0  0  0
   33.1892   12.1198    9.3108 H   0  0  0  0  0  0  0  0  0  0  0  0
   34.3914   11.5303    8.2574 H   0  0  0  0  0  0  0  0  0  0  0  0
   35.0720   14.4319    9.8302 H   0  0  0  0  0  0  0  0  0  0  0  0
   33.5263   12.7476    6.2227 H   0  0  0  0  0  0  0  0  0  0  0  0
   33.1610   13.6920    5.9530 H   0  0  0  0  0  0  0  0  0  0  0  0
   34.5328   12.6599    6.4974 H   0  0  0  0  0  0  0  0  0  0  0  0
  1  2  1  0
  2  3  2  0
  2  4  1  0
  4  5  1  0
  5  6  4  0
  6  7  4  0
  7  8  4  0
  8  9  4  0
  9 10  1  0
 10 11  1  0
 11 12  1  0
 11 13  2  0
  9 14  4  0
 14 15  1  0
 15 16  1  0
 16 17  1  0
 17 18  1  0
 17 19  2  0
 17 20  2  0
 14  5  4  0
  1 21  1  0
  1 22  1  0
  1 23  1  0
  4 24  1  0
  6 25  1  0
  7 26  1  0
  8 27  1  0
 10 28  1  0
 12 29  1  0
 12 30  1  0
 12 31  1  0
 15 32  1  0
 15 33  1  0
 16 34  1  0
 18 35  1  0
 18 36  1  0
 18 37  1  0
M  END
$$$$
LIG
     RDKit          3D

 37 37  0  0  0  0  0  0  0  0999 V2000
   29.3990   13.5140    6.5850 C   0  0  0  0  0  0  0  0  0  0  0  0
   29.3000   13.3530    7.8990 C   0  0  0  0  0  0  0  0  0  0  0  0
   28.5340   14.0390    8.5970 O   0  0  0  0  0  0  0  0  0  0  0  0
   30.0510   12.3330    8.4300 N   0  0  0  0  0  0  0  0  0  0  0  0
   30.9750   11.4650    7.7900 C   0  0  0  0  0  0  0  0  0  0  0  0
   30.9610   10.1240    8.1440 C   0  0  0  0  0  0  0  0  0  0  0  0
   31.8970    9.2580    7.6020 C   0  0  0  0  0  0  0  0  0  0  0  0
   32.8430    9.7180    6.6980 C   0  0  0  0  0  0  0  0  0  0  0  0
   32.8390   11.0500    6.3070 C   0  0  0  0  0  0  0  0  0  0  0  0
   33.6960   11.5950    5.3080 N   0  0  0  0  0  0  0  0  0  0  0  0
   34.7220   11.0190    4.6240 C   0  0  0  0  0  0  0  0  0  0  0  0
   34.4770    9.6170    4.1420 C   0  0  0  0  0  0  0  0  0  0  0  0
   35.7630   11.6170    4.3630 O   0  0  0  0  0  0  0  0  0  0  0  0
   31.9160   11.9260    6.8680 C   0  0  0  0  0  0  0  0  0  0  0  0
   33.3163   13.0898    7.0025 C   0  0  0  0  0  0  0  0  0  0  0  0
   34.9080   14.6080    8.8210 N   0  0  0  0  0  0  0  0  0  0  0  0
   33.5770   13.9020    8.2740 S   0  0  0  0  0  0  0  0  0  0  0  0
   34.0500   13.6360    6.5860 C   0  0  0  0  0  0  0  0  0  0  0  0
   32.5040   14.8410    8.3200 O   0  0  0  0  0  0  0  0  0  0  0  0
   33.4410   12.6200    8.8870 O   0  0  0  0  0  0  0  0  0  0  0  0
   30.4605   13.5567    6.2076 H   0  0  0  0  0  0  0  0  0  0  0  0
   28.9310   14.4649    6.2007 H   0  0  0  0  0  0  0  0  0  0  0  0
   28.9289   12.6875    5.9782 H   0  0  0  0  0  0  0  0  0  0  0  0
   29.9031   12.1566    9.4250 H   0  0  0  0  0  0  0  0  0  0  0  0
   30.2483    9.7157    8.8465 H   0  0  0  0  0  0  0  0  0  0  0  0
   31.8679    8.1988    7.8714 H   0  0  0  0  0  0  0  0  0  0  0  0
   33.5388    8.9991    6.2829 H   0  0  0  0  0  0  0  0  0  0  0  0
   33.7622   12.6308    5.3540 H   0  0  0  0  0  0  0  0  0  0  0  0
   34.4856    8.9329    4.9966 H   0  0  0  0  0  0  0  0  0  0  0  0
   33.5029    9.5276    3.6501 H   0  0  0  0  0  0  0  0  0  0  0  0
   35.2648    9.3325    3.4383 H   0  0  0  0  0  0  0  0  0  0  0  0
   32.7728   13.9210    6.5414 H   0  0  0  0  0  0  0  0  0  0  0  0
   34.2381   12.8988    6.4482 H   0  0  0  0  0  0  0  0  0  0  0  0
   35.4157   15.2103    8.1513 H   0  0  0  0  0  0  0  0  0  0  0  0
   33.3320   14.1221    5.9212 H   0  0  0  0  0  0  0  0  0  0  0  0
   33.2407   13.0919    6.0904 H   0  0  0  0  0  0  0  0  0  0  0  0
   34.1928   14.6038    6.0981 H   0  0  0  0  0  0  0  0  0  0  0  0
  1  2  1  0
  2  3  2  0
  2  4  1  0
  4  5  1  0
  5  6  4  0
  6  7  4  0
  7  8  4  0
  8  9  4  0
  9 10  1  0
 10 11  1  0
 11 12  1  0
 11 13  2  0
  9 14  4  0
 14 15  1  0
 15 16  1  0
 16 17  1  0
 17 18  1  0
 17 19  2  0
 17 20  2  0
 14  5  4  0
  1 21  1  0
  1 22  1  0
  1 23  1  0
  4 24  1  0
  6 25  1  0
  7 26  1  0
  8 27  1  0
 10 28  1  0
 12 29  1  0
 12 30  1  0
 12 31  1  0
 15 32  1  0
 15 33  1  0
 16 34  1  0
 18 35  1  0
 18 36  1  0
 18 37  1  0
M  END
$$$$
LIG
     RDKit          3D

 37 37  0  0  0  0  0  0  0  0999 V2000
   29.3990   13.5140    6.5850 C   0  0  0  0  0  0  0  0  0  0  0  0
   29.3000   13.3530    7.8990 C   0  0  0  0  0  0  0  0  0  0  0  0
   28.5340   14.0390    8.5970 O   0  0  0  0  0  0  0  0  0  0  0  0
   30.0510   12.3330    8.4300 N   0  0  0  0  0  0  0  0  0  0  0  0
   30.9750   11.4650    7.7900 C   0  0  0  0  0  0  0  0  0  0  0  0
   30.9610   10.1240    8.1440 C   0  0  0  0  0  0  0  0  0  0  0  0
   31.8970    9.2580    7.6020 C   0  0  0  0  0  0  0  0  0  0  0  0
   32.8430    9.7180    6.6980 C   0  0  0  0  0  0  0  0  0  0  0  0
   32.8390   11.0500    6.3070 C   0  0  0  0  0  0  0  0  0  0  0  0
   33.6960   11.5950    5.3080 N   0  0  0  0  0  0  0  0  0  0  0  0
   34.7220   11.0190    4.6240 C   0  0  0  0  0  0  0  0  0  0  0  0
   34.4770    9.6170    4.1420 C   0  0  0  0  0  0  0  0  0  0  0  0
   35.7630   11.6170    4.3630 O   0  0  0  0  0  0  0  0  0  0  0  0
   31.9160   11.9260    6.8680 C   0  0  0  0  0  0  0  0  0  0  0  0
   32.9884   13.2878    7.0219 C   0  0  0  0  0  0  0  0  0  0  0  0
   34.9080   14.6080    8.8210 N   0  0  0  0  0  0  0  0  0  0  0  0
   33.5770   13.9020    8.2740 S   0  0  0  0  0  0  0  0  0  0  0  0
   34.0500   13.6360    6.5860 C   0  0  0  0  0  0  0  0  0  0  0  0
   33.4410   12.6200    8.8870 O   0  0  0  0  0  0  0  0  0  0  0  0
   32.5040   14.8410    8.3200 O   0  0  0  0  0  0  0  0  0  0  0  0
   28.4116   13.6959    6.0725 H   0  0  0  0  0  0  0  0  0  0  0  0
   29.8376   12.6254    6.0490 H   0  0  0  0  0  0  0  0  0  0  0  0
   30.0299   14.3921    6.2606 H   0  0  0  0  0  0  0  0  0  0  0  0
   29.8810   12.1430    9.4251 H   0  0  0  0  0  0  0  0  0  0  0  0
   30.2436    9.7181    8.8457 H   0  0  0  0  0  0  0  0  0  0  0  0
   31.9048    8.2112    7.9162 H   0  0  0  0  0  0  0  0  0  0  0  0
   33.5921    9.0194    6.3459 H   0  0  0  0  0  0  0  0  0  0  0  0
   33.2875   12.4190    4.8318 H   0  0  0  0  0  0  0  0  0  0  0  0
   34.2863    9.6320    3.0648 H   0  0  0  0  0  0  0  0  0  0  0  0
   35.2285    9.3560    3.3899 H   0  0  0  0  0  0  0  0  0  0  0  0
   33.4901    9.5179    3.6782 H   0  0  0  0  0  0  0  0  0  0  0  0
   33.5562   13.4730    6.1058 H   0  0  0  0  0  0  0  0  0  0  0  0
   32.1881   14.0378    6.9947 H   0  0  0  0  0  0  0  0  0  0  0  0
   34.9044   14.8724    9.8315 H   0  0  0  0  0  0  0  0  0  0  0  0
   33.8508   14.5448    6.0122 H   0  0  0  0  0  0  0  0  0  0  0  0
   33.1874   13.7947    5.9346 H   0  0  0  0  0  0  0  0  0  0  0  0
   33.4472   12.8131    6.1915 H   0  0  0  0  0  0  0  0  0  0  0  0
  1  2  1  0
  2  3  2  0
  2  4  1  0
  4  5  1  0
  5  6  4  0
  6  7  4  0
  7  8  4  0
  8  9  4  0
  9 10  1  0
 10 11  1  0
 11 12  1  0
 11 13  2  0
  9 14  4  0
 14 15  1  0
 15 16  1  0
 16 17  1  0
 17 18  1  0
 17 19  2  0
 17 20  2  0
 14  5  4  0
  1 21  1  0
  1 22  1  0
  1 23  1  0
  4 24  1  0
  6 25  1  0
  7 26  1  0
  8 27  1  0
 10 28  1  0
 12 29  1  0
 12 30  1  0
 12 31  1  0
 15 32  1  0
 15 33  1  0
 16 34  1  0
 18 35  1  0
 18 36  1  0
 18 37  1  0
M  END
$$$$
