LIG
     RDKit          3D

 48 49  0  0  0  0  0  0  0  0999 V2000
   31.6046    8.1345    8.0662 C   0  0  0  0  0  0  0  0  0  0  0  0
   31.4905    9.5579    7.7087 C   0  0  0  0  0  0  0  0  0  0  0  0
   30.5178   10.3213    8.3399 C   0  0  0  0  0  0  0  0  0  0  0  0
   30.2991   11.6308    7.9591 C   0  0  0  0  0  0  0  0  0  0  0  0
   29.2445   12.2636    8.5409 O   0  0  0  0  0  0  0  0  0  0  0  0
   29.3390   13.6570    8.7329 C   0  0  0  0  0  0  0  0  0  0  0  0
   30.4141   14.1967    9.6997 C   0  0  0  0  0  0  0  0  0  0  0  0
   31.6068   13.9162    9.6014 O   0  0  0  0  0  0  0  0  0  0  0  0
   29.9848   15.1305   10.6544 N   0  0  0  0  0  0  0  0  0  0  0  0
   28.9258   14.6941   11.5325 C   0  0  0  0  0  0  0  0  0  0  0  0
   31.0494   15.8632   11.3181 C   0  0  0  0  0  0  0  0  0  0  0  0
   31.0744   12.1681    6.9477 C   0  0  0  0  0  0  0  0  0  0  0  0
   32.0900   11.4170    6.3489 C   0  0  0  0  0  0  0  0  0  0  0  0
   32.8959   11.8202    5.3275 O   0  0  0  0  0  0  0  0  0  0  0  0
   32.8200   13.1789    4.9357 C   0  0  0  0  0  0  0  0  0  0  0  0
   33.5468   13.9947    5.9768 C   0  0  0  0  0  0  0  0  0  0  0  0
   33.1961   13.9456    7.1584 O   0  0  0  0  0  0  0  0  0  0  0  0
   34.6205   14.7609    5.5974 N   0  0  0  0  0  0  0  0  0  0  0  0
   35.6098   14.9292    6.6499 C   0  0  0  0  0  0  0  0  0  0  0  0
   36.6235   13.7929    6.4868 C   0  0  0  0  0  0  0  0  0  0  0  0
   37.3036   13.9492    5.2229 O   0  0  0  0  0  0  0  0  0  0  0  0
   36.3640   13.8163    4.1378 C   0  0  0  0  0  0  0  0  0  0  0  0
   35.2254   14.8356    4.2617 C   0  0  0  0  0  0  0  0  0  0  0  0
   32.3021   10.1099    6.7321 C   0  0  0  0  0  0  0  0  0  0  0  0
   32.2833    7.6441    7.3767 H   0  0  0  0  0  0  0  0  0  0  0  0
   31.9570    8.0089    9.0866 H   0  0  0  0  0  0  0  0  0  0  0  0
   30.6160    7.6792    7.9887 H   0  0  0  0  0  0  0  0  0  0  0  0
   29.9109    9.8657    9.1127 H   0  0  0  0  0  0  0  0  0  0  0  0
   28.3485   13.9795    9.0609 H   0  0  0  0  0  0  0  0  0  0  0  0
   29.4622   14.1833    7.7787 H   0  0  0  0  0  0  0  0  0  0  0  0
   28.0118   14.4683   10.9849 H   0  0  0  0  0  0  0  0  0  0  0  0
   29.2607   13.8067   12.0623 H   0  0  0  0  0  0  0  0  0  0  0  0
   28.7248   15.4586   12.2820 H   0  0  0  0  0  0  0  0  0  0  0  0
   30.6533   16.7633   11.7918 H   0  0  0  0  0  0  0  0  0  0  0  0
   31.4983   15.2347   12.0780 H   0  0  0  0  0  0  0  0  0  0  0  0
   31.8273   16.1571   10.6114 H   0  0  0  0  0  0  0  0  0  0  0  0
   30.8719   13.1747    6.6188 H   0  0  0  0  0  0  0  0  0  0  0  0
   31.7984   13.5427    4.7865 H   0  0  0  0  0  0  0  0  0  0  0  0
   33.2926   13.2224    3.9569 H   0  0  0  0  0  0  0  0  0  0  0  0
   35.1765   14.9195    7.6537 H   0  0  0  0  0  0  0  0  0  0  0  0
   36.0788   15.8933    6.4778 H   0  0  0  0  0  0  0  0  0  0  0  0
   36.1316   12.8168    6.4872 H   0  0  0  0  0  0  0  0  0  0  0  0
   37.3708   13.7775    7.2827 H   0  0  0  0  0  0  0  0  0  0  0  0
   35.9774   12.7904    4.1327 H   0  0  0  0  0  0  0  0  0  0  0  0
   36.9102   13.9730    3.2025 H   0  0  0  0  0  0  0  0  0  0  0  0
   35.6534   15.8344    4.1463 H   0  0  0  0  0  0  0  0  0  0  0  0
   34.4829   14.7177    3.4709 H   0  0  0  0  0  0  0  0  0  0  0  0
   33.0678    9.5149    6.2416 H   0  0  0  0  0  0  0  0  0  0  0  0
  1  2  1  0
  2  3  2  0
  3  4  1  0
  4  5  1  0
  5  6  1  0
  6  7  1  0
  7  8  2  0
  7  9  1  0
  9 10  1  0
  9 11  1  0
  4 12  2  0
 12 13  1  0
 13 14  1  0
 14 15  1  0
 15 16  1  0
 16 17  2  0
 16 18  1  0
 18 19  1  0
 19 20  1  0
 20 21  1  0
 21 22  1  0
 22 23  1  0
 13 24  2  0
 24  2  1  0
 23 18  1  0
  1 25  1  0
  1 26  1  0
  1 27  1  0
  3 28  1  0
  6 29  1  0
  6 30  1  0
 10 31  1  0
 10 32  1  0
 10 33  1  0
 11 34  1  0
 11 35  1  0
 11 36  1  0
 12 37  1  0
 15 38  1  0
 15 39  1  0
 19 40  1  0
 19 41  1  0
 20 42  1  0
 20 43  1  0
 22 44  1  0
 22 45  1  0
 23 46  1  0
 23 47  1  0
 24 48  1  0
M  END
