LIG
     RDKit          3D

 40 41  0  0  0  0  0  0  0  0999 V2000
   34.4770    9.6170    4.1420 C   0  0  0  0  0  0  0  0  0  0  0  0
   34.7220   11.0190    4.6240 C   0  0  0  0  0  0  0  0  0  0  0  0
   35.7630   11.6170    4.3630 O   0  0  0  0  0  0  0  0  0  0  0  0
   33.6960   11.5950    5.3080 N   0  0  0  0  0  0  0  0  0  0  0  0
   32.8148   10.4860    7.2522 C   0  0  0  0  0  0  0  0  0  0  0  0
   33.3470   10.2740    7.4930 C   0  0  0  0  0  0  0  0  0  0  0  0
   32.8900   11.5720    7.6690 C   0  0  0  0  0  0  0  0  0  0  0  0
   33.3940   12.4720    6.7660 O   0  0  0  0  0  0  0  0  0  0  0  0
   32.5070   13.2300    6.0470 C   0  0  0  0  0  0  0  0  0  0  0  0
   32.8430   14.5690    6.5820 C   0  0  0  0  0  0  0  0  0  0  0  0
   32.2450   15.0040    7.5510 O   0  0  0  0  0  0  0  0  0  0  0  0
   33.9260   15.1770    6.0590 N   0  0  0  0  0  0  0  0  0  0  0  0
   34.5050   15.1130    4.7140 C   0  0  0  0  0  0  0  0  0  0  0  0
   35.9790   14.7950    4.8070 C   0  0  0  0  0  0  0  0  0  0  0  0
   36.6530   15.7410    5.6230 O   0  0  0  0  0  0  0  0  0  0  0  0
   36.2000   15.5640    6.9400 C   0  0  0  0  0  0  0  0  0  0  0  0
   34.7260   15.9040    7.0650 C   0  0  0  0  0  0  0  0  0  0  0  0
   31.8380   11.8440    8.5230 N   0  0  0  0  0  0  0  0  0  0  0  0
   31.1650   10.7950    9.1290 C   0  0  0  0  0  0  0  0  0  0  0  0
   31.5630    9.4800    8.9430 C   0  0  0  0  0  0  0  0  0  0  0  0
   30.8480    8.3410    9.6370 C   0  0  0  0  0  0  0  0  0  0  0  0
   33.4984    9.2746    4.4940 H   0  0  0  0  0  0  0  0  0  0  0  0
   35.2543    8.9548    4.5349 H   0  0  0  0  0  0  0  0  0  0  0  0
   34.4753    9.5704    3.0480 H   0  0  0  0  0  0  0  0  0  0  0  0
   33.5425   12.5858    5.1451 H   0  0  0  0  0  0  0  0  0  0  0  0
   33.8189    9.7817    8.3331 H   0  0  0  0  0  0  0  0  0  0  0  0
   31.5128   12.9599    6.1936 H   0  0  0  0  0  0  0  0  0  0  0  0
   32.8189   13.2078    5.0402 H   0  0  0  0  0  0  0  0  0  0  0  0
   33.9910   14.3672    4.1111 H   0  0  0  0  0  0  0  0  0  0  0  0
   34.3533   16.0963    4.2667 H   0  0  0  0  0  0  0  0  0  0  0  0
   36.4364   14.8222    3.8098 H   0  0  0  0  0  0  0  0  0  0  0  0
   36.1437   13.7873    5.2155 H   0  0  0  0  0  0  0  0  0  0  0  0
   36.3907   14.5267    7.2580 H   0  0  0  0  0  0  0  0  0  0  0  0
   36.7896   16.2170    7.5989 H   0  0  0  0  0  0  0  0  0  0  0  0
   34.3752   15.6893    8.0737 H   0  0  0  0  0  0  0  0  0  0  0  0
   34.5606   16.9683    6.8670 H   0  0  0  0  0  0  0  0  0  0  0  0
   30.3420   11.0879    9.7296 H   0  0  0  0  0  0  0  0  0  0  0  0
   30.8532    8.4992   10.7180 H   0  0  0  0  0  0  0  0  0  0  0  0
   31.5234    7.8490   10.3408 H   0  0  0  0  0  0  0  0  0  0  0  0
   29.9827    8.6988   10.2007 H   0  0  0  0  0  0  0  0  0  0  0  0
  1  2  1  0
  2  3  2  0
  2  4  1  0
  4  5  1  0
  5  6  4  0
  6  7  4  0
  7  8  1  0
  8  9  1  0
  9 10  1  0
 10 11  2  0
 10 12  1  0
 12 13  1  0
 13 14  1  0
 14 15  1  0
 15 16  1  0
 16 17  1  0
  7 18  4  0
 18 19  4  0
 19 20  4  0
 20 21  1  0
 20  5  4  0
 17 12  1  0
  1 22  1  0
  1 23  1  0
  1 24  1  0
  4 25  1  0
  6 26  1  0
  9 27  1  0
  9 28  1  0
 13 29  1  0
 13 30  1  0
 14 31  1  0
 14 32  1  0
 16 33  1  0
 16 34  1  0
 17 35  1  0
 17 36  1  0
 19 37  1  0
 21 38  1  0
 21 39  1  0
 21 40  1  0
M  END
$$$$
LIG
     RDKit          3D

 40 41  0  0  0  0  0  0  0  0999 V2000
   34.4770    9.6170    4.1420 C   0  0  0  0  0  0  0  0  0  0  0  0
   34.7220   11.0190    4.6240 C   0  0  0  0  0  0  0  0  0  0  0  0
   35.7630   11.6170    4.3630 O   0  0  0  0  0  0  0  0  0  0  0  0
   33.6960   11.5950    5.3080 N   0  0  0  0  0  0  0  0  0  0  0  0
   32.8129   10.4863    7.2513 C   0  0  0  0  0  0  0  0  0  0  0  0
   33.3470   10.2740    7.4930 C   0  0  0  0  0  0  0  0  0  0  0  0
   32.8900   11.5720    7.6690 C   0  0  0  0  0  0  0  0  0  0  0  0
   33.3940   12.4720    6.7660 O   0  0  0  0  0  0  0  0  0  0  0  0
   32.5070   13.2300    6.0470 C   0  0  0  0  0  0  0  0  0  0  0  0
   32.8430   14.5690    6.5820 C   0  0  0  0  0  0  0  0  0  0  0  0
   32.2450   15.0040    7.5510 O   0  0  0  0  0  0  0  0  0  0  0  0
   33.9260   15.1770    6.0590 N   0  0  0  0  0  0  0  0  0  0  0  0
   34.7260   15.9040    7.0650 C   0  0  0  0  0  0  0  0  0  0  0  0
   36.2000   15.5640    6.9400 C   0  0  0  0  0  0  0  0  0  0  0  0
   36.6530   15.7410    5.6230 O   0  0  0  0  0  0  0  0  0  0  0  0
   35.9790   14.7950    4.8070 C   0  0  0  0  0  0  0  0  0  0  0  0
   34.5050   15.1130    4.7140 C   0  0  0  0  0  0  0  0  0  0  0  0
   31.8380   11.8440    8.5230 N   0  0  0  0  0  0  0  0  0  0  0  0
   31.1650   10.7950    9.1290 C   0  0  0  0  0  0  0  0  0  0  0  0
   31.5630    9.4800    8.9430 C   0  0  0  0  0  0  0  0  0  0  0  0
   30.8480    8.3410    9.6370 C   0  0  0  0  0  0  0  0  0  0  0  0
   35.4161    9.1779    3.7902 H   0  0  0  0  0  0  0  0  0  0  0  0
   35.0626    8.9020    4.7288 H   0  0  0  0  0  0  0  0  0  0  0  0
   34.0853    9.0078    4.9623 H   0  0  0  0  0  0  0  0  0  0  0  0
   33.9533   12.2065    6.0778 H   0  0  0  0  0  0  0  0  0  0  0  0
   34.4102   10.1215    7.3618 H   0  0  0  0  0  0  0  0  0  0  0  0
   31.4886   13.0079    6.3043 H   0  0  0  0  0  0  0  0  0  0  0  0
   32.6844   13.2120    4.9902 H   0  0  0  0  0  0  0  0  0  0  0  0
   34.3375   15.5940    8.0434 H   0  0  0  0  0  0  0  0  0  0  0  0
   34.5657   16.9830    6.9635 H   0  0  0  0  0  0  0  0  0  0  0  0
   36.3761   14.5308    7.2293 H   0  0  0  0  0  0  0  0  0  0  0  0
   36.7892   16.2088    7.5906 H   0  0  0  0  0  0  0  0  0  0  0  0
   36.4401   14.8164    3.8212 H   0  0  0  0  0  0  0  0  0  0  0  0
   36.1370   13.8053    5.2363 H   0  0  0  0  0  0  0  0  0  0  0  0
   34.3506   16.0986    4.2674 H   0  0  0  0  0  0  0  0  0  0  0  0
   33.9903   14.3681    4.1110 H   0  0  0  0  0  0  0  0  0  0  0  0
   30.3413   11.0880    9.7299 H   0  0  0  0  0  0  0  0  0  0  0  0
   29.9205    8.1051    9.1101 H   0  0  0  0  0  0  0  0  0  0  0  0
   30.5890    8.6018   10.6663 H   0  0  0  0  0  0  0  0  0  0  0  0
   29.8503    8.6597    9.9478 H   0  0  0  0  0  0  0  0  0  0  0  0
  1  2  1  0
  2  3  2  0
  2  4  1  0
  4  5  1  0
  5  6  4  0
  6  7  4  0
  7  8  1  0
  8  9  1  0
  9 10  1  0
 10 11  2  0
 10 12  1  0
 12 13  1  0
 13 14  1  0
 14 15  1  0
 15 16  1  0
 16 17  1  0
  7 18  4  0
 18 19  4  0
 19 20  4  0
 20 21  1  0
 20  5  4  0
 17 12  1  0
  1 22  1  0
  1 23  1  0
  1 24  1  0
  4 25  1  0
  6 26  1  0
  9 27  1  0
  9 28  1  0
 13 29  1  0
 13 30  1  0
 14 31  1  0
 14 32  1  0
 16 33  1  0
 16 34  1  0
 17 35  1  0
 17 36  1  0
 19 37  1  0
 21 38  1  0
 21 39  1  0
 21 40  1  0
M  END
$$$$
LIG
     RDKit          3D

 40 41  0  0  0  0  0  0  0  0999 V2000
   34.4770    9.6170    4.1420 C   0  0  0  0  0  0  0  0  0  0  0  0
   34.7220   11.0190    4.6240 C   0  0  0  0  0  0  0  0  0  0  0  0
   35.7630   11.6170    4.3630 O   0  0  0  0  0  0  0  0  0  0  0  0
   33.6960   11.5950    5.3080 N   0  0  0  0  0  0  0  0  0  0  0  0
   32.7749   10.5685    7.2547 C   0  0  0  0  0  0  0  0  0  0  0  0
   31.8380   11.8440    8.5230 C   0  0  0  0  0  0  0  0  0  0  0  0
   32.8900   11.5720    7.6690 C   0  0  0  0  0  0  0  0  0  0  0  0
   33.3940   12.4720    6.7660 O   0  0  0  0  0  0  0  0  0  0  0  0
   32.5070   13.2300    6.0470 C   0  0  0  0  0  0  0  0  0  0  0  0
   32.8430   14.5690    6.5820 C   0  0  0  0  0  0  0  0  0  0  0  0
   32.2450   15.0040    7.5510 O   0  0  0  0  0  0  0  0  0  0  0  0
   33.9260   15.1770    6.0590 N   0  0  0  0  0  0  0  0  0  0  0  0
   34.5050   15.1130    4.7140 C   0  0  0  0  0  0  0  0  0  0  0  0
   35.9790   14.7950    4.8070 C   0  0  0  0  0  0  0  0  0  0  0  0
   36.6530   15.7410    5.6230 O   0  0  0  0  0  0  0  0  0  0  0  0
   36.2000   15.5640    6.9400 C   0  0  0  0  0  0  0  0  0  0  0  0
   34.7260   15.9040    7.0650 C   0  0  0  0  0  0  0  0  0  0  0  0
   33.3470   10.2740    7.4930 N   0  0  0  0  0  0  0  0  0  0  0  0
   32.6580    9.2460    8.1260 C   0  0  0  0  0  0  0  0  0  0  0  0
   31.5630    9.4800    8.9430 C   0  0  0  0  0  0  0  0  0  0  0  0
   30.8480    8.3410    9.6370 C   0  0  0  0  0  0  0  0  0  0  0  0
   34.4835    9.5985    3.0473 H   0  0  0  0  0  0  0  0  0  0  0  0
   33.5033    9.2710    4.5017 H   0  0  0  0  0  0  0  0  0  0  0  0
   35.2612    8.9393    4.4952 H   0  0  0  0  0  0  0  0  0  0  0  0
   33.1530   10.9813    5.9084 H   0  0  0  0  0  0  0  0  0  0  0  0
   30.8512   11.9725    8.0937 H   0  0  0  0  0  0  0  0  0  0  0  0
   32.7427   13.2187    5.0079 H   0  0  0  0  0  0  0  0  0  0  0  0
   31.5007   12.9983    6.3078 H   0  0  0  0  0  0  0  0  0  0  0  0
   34.3493   16.0971    4.2649 H   0  0  0  0  0  0  0  0  0  0  0  0
   33.9838   14.3644    4.1183 H   0  0  0  0  0  0  0  0  0  0  0  0
   36.1363   13.8062    5.2378 H   0  0  0  0  0  0  0  0  0  0  0  0
   36.4402   14.8153    3.8215 H   0  0  0  0  0  0  0  0  0  0  0  0
   36.7897   16.2084    7.5912 H   0  0  0  0  0  0  0  0  0  0  0  0
   36.3761   14.5304    7.2292 H   0  0  0  0  0  0  0  0  0  0  0  0
   34.3378   15.5929    8.0434 H   0  0  0  0  0  0  0  0  0  0  0  0
   34.5660   16.9833    6.9647 H   0  0  0  0  0  0  0  0  0  0  0  0
   33.0483    8.2735    7.9245 H   0  0  0  0  0  0  0  0  0  0  0  0
   30.0237    8.7060   10.2550 H   0  0  0  0  0  0  0  0  0  0  0  0
   31.5417    7.8062   10.2900 H   0  0  0  0  0  0  0  0  0  0  0  0
   30.4300    7.6550    8.8965 H   0  0  0  0  0  0  0  0  0  0  0  0
  1  2  1  0
  2  3  2  0
  2  4  1  0
  4  5  1  0
  5  6  4  0
  6  7  4  0
  7  8  1  0
  8  9  1  0
  9 10  1  0
 10 11  2  0
 10 12  1  0
 12 13  1  0
 13 14  1  0
 14 15  1  0
 15 16  1  0
 16 17  1  0
  7 18  4  0
 18 19  4  0
 19 20  4  0
 20 21  1  0
 20  5  4  0
 17 12  1  0
  1 22  1  0
  1 23  1  0
  1 24  1  0
  4 25  1  0
  6 26  1  0
  9 27  1  0
  9 28  1  0
 13 29  1  0
 13 30  1  0
 14 31  1  0
 14 32  1  0
 16 33  1  0
 16 34  1  0
 17 35  1  0
 17 36  1  0
 19 37  1  0
 21 38  1  0
 21 39  1  0
 21 40  1  0
M  END
$$$$
LIG
     RDKit          3D

 40 41  0  0  0  0  0  0  0  0999 V2000
   34.4770    9.6170    4.1420 C   0  0  0  0  0  0  0  0  0  0  0  0
   34.7220   11.0190    4.6240 C   0  0  0  0  0  0  0  0  0  0  0  0
   35.7630   11.6170    4.3630 O   0  0  0  0  0  0  0  0  0  0  0  0
   33.6960   11.5950    5.3080 N   0  0  0  0  0  0  0  0  0  0  0  0
   32.7838   10.5648    7.2590 C   0  0  0  0  0  0  0  0  0  0  0  0
   31.8380   11.8440    8.5230 C   0  0  0  0  0  0  0  0  0  0  0  0
   32.8900   11.5720    7.6690 C   0  0  0  0  0  0  0  0  0  0  0  0
   33.3940   12.4720    6.7660 O   0  0  0  0  0  0  0  0  0  0  0  0
   32.5070   13.2300    6.0470 C   0  0  0  0  0  0  0  0  0  0  0  0
   32.8430   14.5690    6.5820 C   0  0  0  0  0  0  0  0  0  0  0  0
   32.2450   15.0040    7.5510 O   0  0  0  0  0  0  0  0  0  0  0  0
   33.9260   15.1770    6.0590 N   0  0  0  0  0  0  0  0  0  0  0  0
   34.7260   15.9040    7.0650 C   0  0  0  0  0  0  0  0  0  0  0  0
   36.2000   15.5640    6.9400 C   0  0  0  0  0  0  0  0  0  0  0  0
   36.6530   15.7410    5.6230 O   0  0  0  0  0  0  0  0  0  0  0  0
   35.9790   14.7950    4.8070 C   0  0  0  0  0  0  0  0  0  0  0  0
   34.5050   15.1130    4.7140 C   0  0  0  0  0  0  0  0  0  0  0  0
   33.3470   10.2740    7.4930 N   0  0  0  0  0  0  0  0  0  0  0  0
   32.6580    9.2460    8.1260 C   0  0  0  0  0  0  0  0  0  0  0  0
   31.5630    9.4800    8.9430 C   0  0  0  0  0  0  0  0  0  0  0  0
   30.8480    8.3410    9.6370 C   0  0  0  0  0  0  0  0  0  0  0  0
   35.0246    8.8880    4.7483 H   0  0  0  0  0  0  0  0  0  0  0  0
   34.8233    9.5204    3.1079 H   0  0  0  0  0  0  0  0  0  0  0  0
   33.4060    9.3982    4.1869 H   0  0  0  0  0  0  0  0  0  0  0  0
   33.6933   12.6103    5.3506 H   0  0  0  0  0  0  0  0  0  0  0  0
   31.7621   12.8403    8.9412 H   0  0  0  0  0  0  0  0  0  0  0  0
   32.6884   13.2234    4.9954 H   0  0  0  0  0  0  0  0  0  0  0  0
   31.4964   13.0049    6.3151 H   0  0  0  0  0  0  0  0  0  0  0  0
   34.3623   15.6700    8.0696 H   0  0  0  0  0  0  0  0  0  0  0  0
   34.5621   16.9716    6.8733 H   0  0  0  0  0  0  0  0  0  0  0  0
   36.7918   16.2003    7.5955 H   0  0  0  0  0  0  0  0  0  0  0  0
   36.3736   14.5260    7.2250 H   0  0  0  0  0  0  0  0  0  0  0  0
   36.1342   13.8096    5.2391 H   0  0  0  0  0  0  0  0  0  0  0  0
   36.4403   14.8161    3.8208 H   0  0  0  0  0  0  0  0  0  0  0  0
   34.3403   16.0547    4.1875 H   0  0  0  0  0  0  0  0  0  0  0  0
   33.9696   14.3184    4.1870 H   0  0  0  0  0  0  0  0  0  0  0  0
   33.0497    8.2735    7.9249 H   0  0  0  0  0  0  0  0  0  0  0  0
   31.5469    7.7921   10.2725 H   0  0  0  0  0  0  0  0  0  0  0  0
   30.4111    7.6673    8.8962 H   0  0  0  0  0  0  0  0  0  0  0  0
   31.2813    7.3749    9.3661 H   0  0  0  0  0  0  0  0  0  0  0  0
  1  2  1  0
  2  3  2  0
  2  4  1  0
  4  5  1  0
  5  6  4  0
  6  7  4  0
  7  8  1  0
  8  9  1  0
  9 10  1  0
 10 11  2  0
 10 12  1  0
 12 13  1  0
 13 14  1  0
 14 15  1  0
 15 16  1  0
 16 17  1  0
  7 18  4  0
 18 19  4  0
 19 20  4  0
 20 21  1  0
 20  5  4  0
 17 12  1  0
  1 22  1  0
  1 23  1  0
  1 24  1  0
  4 25  1  0
  6 26  1  0
  9 27  1  0
  9 28  1  0
 13 29  1  0
 13 30  1  0
 14 31  1  0
 14 32  1  0
 16 33  1  0
 16 34  1  0
 17 35  1  0
 17 36  1  0
 19 37  1  0
 21 38  1  0
 21 39  1  0
 21 40  1  0
M  END
$$$$
LIG
     RDKit          3D

 40 41  0  0  0  0  0  0  0  0999 V2000
   34.4770    9.6170    4.1420 C   0  0  0  0  0  0  0  0  0  0  0  0
   34.7220   11.0190    4.6240 C   0  0  0  0  0  0  0  0  0  0  0  0
   35.7630   11.6170    4.3630 O   0  0  0  0  0  0  0  0  0  0  0  0
   33.6960   11.5950    5.3080 N   0  0  0  0  0  0  0  0  0  0  0  0
   32.7836   10.5657    7.2590 C   0  0  0  0  0  0  0  0  0  0  0  0
   31.8380   11.8440    8.5230 C   0  0  0  0  0  0  0  0  0  0  0  0
   32.8900   11.5720    7.6690 C   0  0  0  0  0  0  0  0  0  0  0  0
   33.3940   12.4720    6.7660 O   0  0  0  0  0  0  0  0  0  0  0  0
   32.5070   13.2300    6.0470 C   0  0  0  0  0  0  0  0  0  0  0  0
   32.8430   14.5690    6.5820 C   0  0  0  0  0  0  0  0  0  0  0  0
   32.2450   15.0040    7.5510 O   0  0  0  0  0  0  0  0  0  0  0  0
   33.9260   15.1770    6.0590 N   0  0  0  0  0  0  0  0  0  0  0  0
   34.5050   15.1130    4.7140 C   0  0  0  0  0  0  0  0  0  0  0  0
   35.9790   14.7950    4.8070 C   0  0  0  0  0  0  0  0  0  0  0  0
   36.6530   15.7410    5.6230 O   0  0  0  0  0  0  0  0  0  0  0  0
   36.2000   15.5640    6.9400 C   0  0  0  0  0  0  0  0  0  0  0  0
   34.7260   15.9040    7.0650 C   0  0  0  0  0  0  0  0  0  0  0  0
   33.3470   10.2740    7.4930 N   0  0  0  0  0  0  0  0  0  0  0  0
   32.6580    9.2460    8.1260 C   0  0  0  0  0  0  0  0  0  0  0  0
   31.5630    9.4800    8.9430 C   0  0  0  0  0  0  0  0  0  0  0  0
   30.8480    8.3410    9.6370 C   0  0  0  0  0  0  0  0  0  0  0  0
   35.3872    9.0231    4.2685 H   0  0  0  0  0  0  0  0  0  0  0  0
   33.6670    9.1660    4.7244 H   0  0  0  0  0  0  0  0  0  0  0  0
   34.1780    9.6083    3.0887 H   0  0  0  0  0  0  0  0  0  0  0  0
   33.5082   11.2286    6.2365 H   0  0  0  0  0  0  0  0  0  0  0  0
   30.8535   11.9856    8.0939 H   0  0  0  0  0  0  0  0  0  0  0  0
   32.8189   13.2105    5.0394 H   0  0  0  0  0  0  0  0  0  0  0  0
   31.5154   12.9512    6.1863 H   0  0  0  0  0  0  0  0  0  0  0  0
   33.9694   14.3224    4.1850 H   0  0  0  0  0  0  0  0  0  0  0  0
   34.3525   16.0577    4.1974 H   0  0  0  0  0  0  0  0  0  0  0  0
   36.4435   14.8076    3.8205 H   0  0  0  0  0  0  0  0  0  0  0  0
   36.1329   13.8090    5.2421 H   0  0  0  0  0  0  0  0  0  0  0  0
   36.7918   16.1971    7.5963 H   0  0  0  0  0  0  0  0  0  0  0  0
   36.3687   14.5250    7.2186 H   0  0  0  0  0  0  0  0  0  0  0  0
   34.3630   15.6816    8.0752 H   0  0  0  0  0  0  0  0  0  0  0  0
   34.5557   16.9721    6.8742 H   0  0  0  0  0  0  0  0  0  0  0  0
   33.0488    8.2741    7.9243 H   0  0  0  0  0  0  0  0  0  0  0  0
   29.8098    8.2909    9.3006 H   0  0  0  0  0  0  0  0  0  0  0  0
   30.0022    8.7027   10.2272 H   0  0  0  0  0  0  0  0  0  0  0  0
   30.4604    7.6365    8.8975 H   0  0  0  0  0  0  0  0  0  0  0  0
  1  2  1  0
  2  3  2  0
  2  4  1  0
  4  5  1  0
  5  6  4  0
  6  7  4  0
  7  8  1  0
  8  9  1  0
  9 10  1  0
 10 11  2  0
 10 12  1  0
 12 13  1  0
 13 14  1  0
 14 15  1  0
 15 16  1  0
 16 17  1  0
  7 18  4  0
 18 19  4  0
 19 20  4  0
 20 21  1  0
 20  5  4  0
 17 12  1  0
  1 22  1  0
  1 23  1  0
  1 24  1  0
  4 25  1  0
  6 26  1  0
  9 27  1  0
  9 28  1  0
 13 29  1  0
 13 30  1  0
 14 31  1  0
 14 32  1  0
 16 33  1  0
 16 34  1  0
 17 35  1  0
 17 36  1  0
 19 37  1  0
 21 38  1  0
 21 39  1  0
 21 40  1  0
M  END
$$$$
LIG
     RDKit          3D

 40 41  0  0  0  0  0  0  0  0999 V2000
   34.4770    9.6170    4.1420 C   0  0  0  0  0  0  0  0  0  0  0  0
   34.7220   11.0190    4.6240 C   0  0  0  0  0  0  0  0  0  0  0  0
   35.7630   11.6170    4.3630 O   0  0  0  0  0  0  0  0  0  0  0  0
   33.6960   11.5950    5.3080 N   0  0  0  0  0  0  0  0  0  0  0  0
   32.7992   10.4934    7.2428 C   0  0  0  0  0  0  0  0  0  0  0  0
   33.3470   10.2740    7.4930 C   0  0  0  0  0  0  0  0  0  0  0  0
   32.8900   11.5720    7.6690 C   0  0  0  0  0  0  0  0  0  0  0  0
   33.3940   12.4720    6.7660 O   0  0  0  0  0  0  0  0  0  0  0  0
   32.5070   13.2300    6.0470 C   0  0  0  0  0  0  0  0  0  0  0  0
   32.8430   14.5690    6.5820 C   0  0  0  0  0  0  0  0  0  0  0  0
   32.2450   15.0040    7.5510 O   0  0  0  0  0  0  0  0  0  0  0  0
   33.9260   15.1770    6.0590 N   0  0  0  0  0  0  0  0  0  0  0  0
   34.7260   15.9040    7.0650 C   0  0  0  0  0  0  0  0  0  0  0  0
   36.2000   15.5640    6.9400 C   0  0  0  0  0  0  0  0  0  0  0  0
   36.6530   15.7410    5.6230 O   0  0  0  0  0  0  0  0  0  0  0  0
   35.9790   14.7950    4.8070 C   0  0  0  0  0  0  0  0  0  0  0  0
   34.5050   15.1130    4.7140 C   0  0  0  0  0  0  0  0  0  0  0  0
   31.8380   11.8440    8.5230 N   0  0  0  0  0  0  0  0  0  0  0  0
   31.1650   10.7950    9.1290 C   0  0  0  0  0  0  0  0  0  0  0  0
   31.5630    9.4800    8.9430 C   0  0  0  0  0  0  0  0  0  0  0  0
   30.8480    8.3410    9.6370 C   0  0  0  0  0  0  0  0  0  0  0  0
   34.7654    8.8823    4.9009 H   0  0  0  0  0  0  0  0  0  0  0  0
   35.0495    9.4405    3.2264 H   0  0  0  0  0  0  0  0  0  0  0  0
   35.4241    9.0683    4.1158 H   0  0  0  0  0  0  0  0  0  0  0  0
   33.7673   11.5897    6.3212 H   0  0  0  0  0  0  0  0  0  0  0  0
   34.1157    9.9094    8.1616 H   0  0  0  0  0  0  0  0  0  0  0  0
   31.5380   12.9925    6.3898 H   0  0  0  0  0  0  0  0  0  0  0  0
   32.6236   13.1398    5.0181 H   0  0  0  0  0  0  0  0  0  0  0  0
   34.5744   16.9783    6.9494 H   0  0  0  0  0  0  0  0  0  0  0  0
   34.3381   15.5967    8.0419 H   0  0  0  0  0  0  0  0  0  0  0  0
   36.3732   14.5260    7.2256 H   0  0  0  0  0  0  0  0  0  0  0  0
   36.7961   16.1978    7.6002 H   0  0  0  0  0  0  0  0  0  0  0  0
   36.4400   14.8099    3.8246 H   0  0  0  0  0  0  0  0  0  0  0  0
   36.1297   13.8132    5.2487 H   0  0  0  0  0  0  0  0  0  0  0  0
   33.9861   14.3693    4.1046 H   0  0  0  0  0  0  0  0  0  0  0  0
   34.3469   16.0984    4.2635 H   0  0  0  0  0  0  0  0  0  0  0  0
   30.3421   11.0877    9.7297 H   0  0  0  0  0  0  0  0  0  0  0  0
   31.3287    7.3822    9.4268 H   0  0  0  0  0  0  0  0  0  0  0  0
   31.5274    7.8398   10.3304 H   0  0  0  0  0  0  0  0  0  0  0  0
   30.8659    8.4921   10.7188 H   0  0  0  0  0  0  0  0  0  0  0  0
  1  2  1  0
  2  3  2  0
  2  4  1  0
  4  5  1  0
  5  6  4  0
  6  7  4  0
  7  8  1  0
  8  9  1  0
  9 10  1  0
 10 11  2  0
 10 12  1  0
 12 13  1  0
 13 14  1  0
 14 15  1  0
 15 16  1  0
 16 17  1  0
  7 18  4  0
 18 19  4  0
 19 20  4  0
 20 21  1  0
 20  5  4  0
 17 12  1  0
  1 22  1  0
  1 23  1  0
  1 24  1  0
  4 25  1  0
  6 26  1  0
  9 27  1  0
  9 28  1  0
 13 29  1  0
 13 30  1  0
 14 31  1  0
 14 32  1  0
 16 33  1  0
 16 34  1  0
 17 35  1  0
 17 36  1  0
 19 37  1  0
 21 38  1  0
 21 39  1  0
 21 40  1  0
M  END
$$$$
LIG
     RDKit          3D

 40 41  0  0  0  0  0  0  0  0999 V2000
   34.4770    9.6170    4.1420 C   0  0  0  0  0  0  0  0  0  0  0  0
   34.7220   11.0190    4.6240 C   0  0  0  0  0  0  0  0  0  0  0  0
   35.7630   11.6170    4.3630 O   0  0  0  0  0  0  0  0  0  0  0  0
   33.6960   11.5950    5.3080 N   0  0  0  0  0  0  0  0  0  0  0  0
   32.8136   10.4856    7.2517 C   0  0  0  0  0  0  0  0  0  0  0  0
   33.3470   10.2740    7.4930 C   0  0  0  0  0  0  0  0  0  0  0  0
   32.8900   11.5720    7.6690 C   0  0  0  0  0  0  0  0  0  0  0  0
   33.3940   12.4720    6.7660 O   0  0  0  0  0  0  0  0  0  0  0  0
   32.5070   13.2300    6.0470 C   0  0  0  0  0  0  0  0  0  0  0  0
   32.8430   14.5690    6.5820 C   0  0  0  0  0  0  0  0  0  0  0  0
   32.2450   15.0040    7.5510 O   0  0  0  0  0  0  0  0  0  0  0  0
   33.9260   15.1770    6.0590 N   0  0  0  0  0  0  0  0  0  0  0  0
   34.5050   15.1130    4.7140 C   0  0  0  0  0  0  0  0  0  0  0  0
   35.9790   14.7950    4.8070 C   0  0  0  0  0  0  0  0  0  0  0  0
   36.6530   15.7410    5.6230 O   0  0  0  0  0  0  0  0  0  0  0  0
   36.2000   15.5640    6.9400 C   0  0  0  0  0  0  0  0  0  0  0  0
   34.7260   15.9040    7.0650 C   0  0  0  0  0  0  0  0  0  0  0  0
   31.8380   11.8440    8.5230 N   0  0  0  0  0  0  0  0  0  0  0  0
   31.1650   10.7950    9.1290 C   0  0  0  0  0  0  0  0  0  0  0  0
   31.5630    9.4800    8.9430 C   0  0  0  0  0  0  0  0  0  0  0  0
   30.8480    8.3410    9.6370 C   0  0  0  0  0  0  0  0  0  0  0  0
   34.3069    9.5979    3.0606 H   0  0  0  0  0  0  0  0  0  0  0  0
   35.2499    9.3377    3.4186 H   0  0  0  0  0  0  0  0  0  0  0  0
   35.3388    8.9897    4.3885 H   0  0  0  0  0  0  0  0  0  0  0  0
   33.8094   12.5744    5.5543 H   0  0  0  0  0  0  0  0  0  0  0  0
   33.0869    9.7620    6.5760 H   0  0  0  0  0  0  0  0  0  0  0  0
   31.4963   13.0052    6.3150 H   0  0  0  0  0  0  0  0  0  0  0  0
   32.6887   13.2229    4.9953 H   0  0  0  0  0  0  0  0  0  0  0  0
   34.3402   16.0548    4.1876 H   0  0  0  0  0  0  0  0  0  0  0  0
   33.9696   14.3184    4.1869 H   0  0  0  0  0  0  0  0  0  0  0  0
   36.1342   13.8095    5.2391 H   0  0  0  0  0  0  0  0  0  0  0  0
   36.4404   14.8159    3.8208 H   0  0  0  0  0  0  0  0  0  0  0  0
   36.7918   16.2005    7.5954 H   0  0  0  0  0  0  0  0  0  0  0  0
   36.3736   14.5260    7.2251 H   0  0  0  0  0  0  0  0  0  0  0  0
   34.5624   16.9717    6.8735 H   0  0  0  0  0  0  0  0  0  0  0  0
   34.3622   15.6698    8.0695 H   0  0  0  0  0  0  0  0  0  0  0  0
   30.3415   11.0881    9.7301 H   0  0  0  0  0  0  0  0  0  0  0  0
   30.5257    8.6529   10.6332 H   0  0  0  0  0  0  0  0  0  0  0  0
   31.3594    8.0915   10.5696 H   0  0  0  0  0  0  0  0  0  0  0  0
   31.5024    7.4737    9.7557 H   0  0  0  0  0  0  0  0  0  0  0  0
  1  2  1  0
  2  3  2  0
  2  4  1  0
  4  5  1  0
  5  6  4  0
  6  7  4  0
  7  8  1  0
  8  9  1  0
  9 10  1  0
 10 11  2  0
 10 12  1  0
 12 13  1  0
 13 14  1  0
 14 15  1  0
 15 16  1  0
 16 17  1  0
  7 18  4  0
 18 19  4  0
 19 20  4  0
 20 21  1  0
 20  5  4  0
 17 12  1  0
  1 22  1  0
  1 23  1  0
  1 24  1  0
  4 25  1  0
  6 26  1  0
  9 27  1  0
  9 28  1  0
 13 29  1  0
 13 30  1  0
 14 31  1  0
 14 32  1  0
 16 33  1  0
 16 34  1  0
 17 35  1  0
 17 36  1  0
 19 37  1  0
 21 38  1  0
 21 39  1  0
 21 40  1  0
M  END
$$$$
