LIG
     RDKit          3D

 40 41  0  0  0  0  0  0  0  0999 V2000
   34.4770    9.6170    4.1420 C   0  0  0  0  0  0  0  0  0  0  0  0
   34.7220   11.0190    4.6240 C   0  0  0  0  0  0  0  0  0  0  0  0
   35.7630   11.6170    4.3630 O   0  0  0  0  0  0  0  0  0  0  0  0
   33.6960   11.5950    5.3080 N   0  0  0  0  0  0  0  0  0  0  0  0
   32.7640   10.5704    7.2496 C   0  0  0  0  0  0  0  0  0  0  0  0
   31.8380   11.8440    8.5230 C   0  0  0  0  0  0  0  0  0  0  0  0
   32.8900   11.5720    7.6690 C   0  0  0  0  0  0  0  0  0  0  0  0
   33.3940   12.4720    6.7660 O   0  0  0  0  0  0  0  0  0  0  0  0
   32.5070   13.2300    6.0470 C   0  0  0  0  0  0  0  0  0  0  0  0
   32.8430   14.5690    6.5820 C   0  0  0  0  0  0  0  0  0  0  0  0
   32.2450   15.0040    7.5510 O   0  0  0  0  0  0  0  0  0  0  0  0
   33.9260   15.1770    6.0590 N   0  0  0  0  0  0  0  0  0  0  0  0
   34.7260   15.9040    7.0650 C   0  0  0  0  0  0  0  0  0  0  0  0
   36.2000   15.5640    6.9400 C   0  0  0  0  0  0  0  0  0  0  0  0
   36.6530   15.7410    5.6230 O   0  0  0  0  0  0  0  0  0  0  0  0
   35.9790   14.7950    4.8070 C   0  0  0  0  0  0  0  0  0  0  0  0
   34.5050   15.1130    4.7140 C   0  0  0  0  0  0  0  0  0  0  0  0
   33.3470   10.2740    7.4930 N   0  0  0  0  0  0  0  0  0  0  0  0
   32.6580    9.2460    8.1260 C   0  0  0  0  0  0  0  0  0  0  0  0
   31.5630    9.4800    8.9430 C   0  0  0  0  0  0  0  0  0  0  0  0
   30.8480    8.3410    9.6370 C   0  0  0  0  0  0  0  0  0  0  0  0
   34.8539    9.4868    3.1218 H   0  0  0  0  0  0  0  0  0  0  0  0
   35.0017    8.9073    4.7910 H   0  0  0  0  0  0  0  0  0  0  0  0
   33.4036    9.4017    4.1685 H   0  0  0  0  0  0  0  0  0  0  0  0
   33.6848   11.4494    6.3134 H   0  0  0  0  0  0  0  0  0  0  0  0
   31.6616   11.1671    9.3502 H   0  0  0  0  0  0  0  0  0  0  0  0
   31.5366   12.9965    6.3897 H   0  0  0  0  0  0  0  0  0  0  0  0
   32.6217   13.1359    5.0168 H   0  0  0  0  0  0  0  0  0  0  0  0
   34.3565   15.6613    8.0648 H   0  0  0  0  0  0  0  0  0  0  0  0
   34.5574   16.9700    6.8763 H   0  0  0  0  0  0  0  0  0  0  0  0
   36.7918   16.2028    7.5954 H   0  0  0  0  0  0  0  0  0  0  0  0
   36.3771   14.5265    7.2298 H   0  0  0  0  0  0  0  0  0  0  0  0
   36.1349   13.8100    5.2367 H   0  0  0  0  0  0  0  0  0  0  0  0
   36.4386   14.8215    3.8214 H   0  0  0  0  0  0  0  0  0  0  0  0
   33.9683   14.3187    4.1857 H   0  0  0  0  0  0  0  0  0  0  0  0
   34.3423   16.0537    4.1830 H   0  0  0  0  0  0  0  0  0  0  0  0
   33.0485    8.2739    7.9242 H   0  0  0  0  0  0  0  0  0  0  0  0
   30.8835    7.4432    9.0154 H   0  0  0  0  0  0  0  0  0  0  0  0
   29.7968    8.5809    9.8158 H   0  0  0  0  0  0  0  0  0  0  0  0
   31.3129    8.1418   10.6054 H   0  0  0  0  0  0  0  0  0  0  0  0
  1  2  1  0
  2  3  2  0
  2  4  1  0
  4  5  1  0
  5  6  4  0
  6  7  4  0
  7  8  1  0
  8  9  1  0
  9 10  1  0
 10 11  2  0
 10 12  1  0
 12 13  1  0
 13 14  1  0
 14 15  1  0
 15 16  1  0
 16 17  1  0
  7 18  4  0
 18 19  4  0
 19 20  4  0
 20 21  1  0
 20  5  4  0
 17 12  1  0
  1 22  1  0
  1 23  1  0
  1 24  1  0
  4 25  1  0
  6 26  1  0
  9 27  1  0
  9 28  1  0
 13 29  1  0
 13 30  1  0
 14 31  1  0
 14 32  1  0
 16 33  1  0
 16 34  1  0
 17 35  1  0
 17 36  1  0
 19 37  1  0
 21 38  1  0
 21 39  1  0
 21 40  1  0
M  END
