LIG
     RDKit          3D

 38 39  0  0  0  0  0  0  0  0999 V2000
   34.2512   10.4943    4.9845 C   0  0  0  0  0  0  0  0  0  0  0  0
   33.1714   10.4441    6.0253 C   0  0  0  0  0  0  0  0  0  0  0  0
   32.5932    9.2082    6.3294 C   0  0  0  0  0  0  0  0  0  0  0  0
   31.6026    9.0646    7.2998 C   0  0  0  0  0  0  0  0  0  0  0  0
   31.1476   10.1772    7.9712 C   0  0  0  0  0  0  0  0  0  0  0  0
   31.7469   11.4063    7.7179 C   0  0  0  0  0  0  0  0  0  0  0  0
   31.3292   12.4339    8.5069 O   0  0  0  0  0  0  0  0  0  0  0  0
   30.4812   13.2920    7.8102 C   0  0  0  0  0  0  0  0  0  0  0  0
   29.1038   12.7144    7.5086 C   0  0  0  0  0  0  0  0  0  0  0  0
   28.2710   13.9532    7.3755 C   0  0  0  0  0  0  0  0  0  0  0  0
   28.8149   14.8037    8.3961 N   0  0  0  0  0  0  0  0  0  0  0  0
   28.4213   16.1615    8.4426 C   0  0  0  0  0  0  0  0  0  0  0  0
   30.1408   14.4789    8.6884 C   0  0  0  0  0  0  0  0  0  0  0  0
   30.8902   15.1138    9.4177 O   0  0  0  0  0  0  0  0  0  0  0  0
   32.7942   11.5478    6.7930 C   0  0  0  0  0  0  0  0  0  0  0  0
   33.5312   12.7467    6.6777 N   0  0  0  0  0  0  0  0  0  0  0  0
   34.1330   13.3413    7.7837 C   0  0  0  0  0  0  0  0  0  0  0  0
   33.9595   12.9980    8.9535 O   0  0  0  0  0  0  0  0  0  0  0  0
   35.0764   14.4860    7.4579 C   0  0  0  0  0  0  0  0  0  0  0  0
   35.4464   14.6381    5.6847 S   0  0  0  0  0  0  0  0  0  0  0  0
   34.3789    9.5280    4.4846 H   0  0  0  0  0  0  0  0  0  0  0  0
   35.2121   10.7683    5.4275 H   0  0  0  0  0  0  0  0  0  0  0  0
   33.9908   11.2241    4.2106 H   0  0  0  0  0  0  0  0  0  0  0  0
   32.9681    8.3240    5.8316 H   0  0  0  0  0  0  0  0  0  0  0  0
   31.2016    8.0832    7.5427 H   0  0  0  0  0  0  0  0  0  0  0  0
   30.3807   10.0768    8.7332 H   0  0  0  0  0  0  0  0  0  0  0  0
   30.9465   13.6794    6.8964 H   0  0  0  0  0  0  0  0  0  0  0  0
   28.7633   12.1035    8.3459 H   0  0  0  0  0  0  0  0  0  0  0  0
   29.0853   12.1008    6.6056 H   0  0  0  0  0  0  0  0  0  0  0  0
   27.2087   13.7818    7.5381 H   0  0  0  0  0  0  0  0  0  0  0  0
   28.4241   14.4174    6.3943 H   0  0  0  0  0  0  0  0  0  0  0  0
   27.4733   16.2120    8.9757 H   0  0  0  0  0  0  0  0  0  0  0  0
   29.1834   16.7739    8.8947 H   0  0  0  0  0  0  0  0  0  0  0  0
   28.3654   16.5139    7.4157 H   0  0  0  0  0  0  0  0  0  0  0  0
   34.1273   12.8381    5.8595 H   0  0  0  0  0  0  0  0  0  0  0  0
   34.6158   15.4054    7.8127 H   0  0  0  0  0  0  0  0  0  0  0  0
   36.0145   14.3231    7.9950 H   0  0  0  0  0  0  0  0  0  0  0  0
   35.6075   15.9779    5.6781 H   0  0  0  0  0  0  0  0  0  0  0  0
  1  2  1  0
  2  3  2  0
  3  4  1  0
  4  5  2  0
  5  6  1  0
  6  7  1  0
  7  8  1  0
  8  9  1  0
  9 10  1  0
 10 11  1  0
 11 12  1  0
 11 13  1  0
 13 14  2  0
  6 15  2  0
 15 16  1  0
 16 17  1  0
 17 18  2  0
 17 19  1  0
 19 20  1  0
 15  2  1  0
 13  8  1  0
  1 21  1  0
  1 22  1  0
  1 23  1  0
  3 24  1  0
  4 25  1  0
  5 26  1  0
  8 27  1  0
  9 28  1  0
  9 29  1  0
 10 30  1  0
 10 31  1  0
 12 32  1  0
 12 33  1  0
 12 34  1  0
 16 35  1  0
 19 36  1  0
 19 37  1  0
 20 38  1  0
M  END
