LIG
     RDKit          3D

 40 40  0  0  0  0  0  0  0  0999 V2000
   30.1542    8.7528    8.3974 C   0  0  0  0  0  0  0  0  0  0  0  0
   30.9661    9.8217    7.7398 C   0  0  0  0  0  0  0  0  0  0  0  0
   32.0335    9.4645    6.8972 C   0  0  0  0  0  0  0  0  0  0  0  0
   32.8835   10.4277    6.3402 C   0  0  0  0  0  0  0  0  0  0  0  0
   33.9718   10.0076    5.3975 C   0  0  0  0  0  0  0  0  0  0  0  0
   32.6872   11.7512    6.7367 C   0  0  0  0  0  0  0  0  0  0  0  0
   33.6524   12.7291    6.5164 N   0  0  0  0  0  0  0  0  0  0  0  0
   34.2108   13.3904    7.6119 C   0  0  0  0  0  0  0  0  0  0  0  0
   33.9150   13.2062    8.7927 O   0  0  0  0  0  0  0  0  0  0  0  0
   35.2799   14.3702    7.1848 C   0  0  0  0  0  0  0  0  0  0  0  0
   35.3761   14.3445    5.7575 O   0  0  0  0  0  0  0  0  0  0  0  0
   36.3048   15.2897    5.2741 C   0  0  0  0  0  0  0  0  0  0  0  0
   37.7551   14.8185    5.1935 C   0  0  0  0  0  0  0  0  0  0  0  0
   38.1028   13.7446    5.6902 O   0  0  0  0  0  0  0  0  0  0  0  0
   38.6676   15.6988    4.6054 N   0  0  0  0  0  0  0  0  0  0  0  0
   40.0246   15.2421    4.3777 C   0  0  0  0  0  0  0  0  0  0  0  0
   38.3292   17.0047    4.0375 C   0  0  0  0  0  0  0  0  0  0  0  0
   31.5561   12.1312    7.4500 C   0  0  0  0  0  0  0  0  0  0  0  0
   30.6850   11.1719    7.9093 C   0  0  0  0  0  0  0  0  0  0  0  0
   29.5509   11.6443    8.4811 O   0  0  0  0  0  0  0  0  0  0  0  0
   30.0518    8.9571    9.4671 H   0  0  0  0  0  0  0  0  0  0  0  0
   29.1701    8.6633    7.9393 H   0  0  0  0  0  0  0  0  0  0  0  0
   30.6522    7.7895    8.3112 H   0  0  0  0  0  0  0  0  0  0  0  0
   32.2253    8.4106    6.7087 H   0  0  0  0  0  0  0  0  0  0  0  0
   33.6700   10.2289    4.3689 H   0  0  0  0  0  0  0  0  0  0  0  0
   34.9140   10.5218    5.5998 H   0  0  0  0  0  0  0  0  0  0  0  0
   34.1698    8.9337    5.4701 H   0  0  0  0  0  0  0  0  0  0  0  0
   34.3435   12.6051    5.7824 H   0  0  0  0  0  0  0  0  0  0  0  0
   36.2278   14.0686    7.6385 H   0  0  0  0  0  0  0  0  0  0  0  0
   34.9727   15.3603    7.5229 H   0  0  0  0  0  0  0  0  0  0  0  0
   35.9812   15.5636    4.2658 H   0  0  0  0  0  0  0  0  0  0  0  0
   36.3083   16.1498    5.9306 H   0  0  0  0  0  0  0  0  0  0  0  0
   40.2767   14.3633    4.9770 H   0  0  0  0  0  0  0  0  0  0  0  0
   40.1144   14.9698    3.3211 H   0  0  0  0  0  0  0  0  0  0  0  0
   40.7332   16.0483    4.5885 H   0  0  0  0  0  0  0  0  0  0  0  0
   38.3229   16.9060    2.9477 H   0  0  0  0  0  0  0  0  0  0  0  0
   37.3559   17.3716    4.3560 H   0  0  0  0  0  0  0  0  0  0  0  0
   39.0935   17.7334    4.3240 H   0  0  0  0  0  0  0  0  0  0  0  0
   31.3626   13.1757    7.6771 H   0  0  0  0  0  0  0  0  0  0  0  0
   29.5665   11.4650    9.4458 H   0  0  0  0  0  0  0  0  0  0  0  0
  1  2  1  0
  2  3  2  0
  3  4  1  0
  4  5  1  0
  4  6  2  0
  6  7  1  0
  7  8  1  0
  8  9  2  0
  8 10  1  0
 10 11  1  0
 11 12  1  0
 12 13  1  0
 13 14  2  0
 13 15  1  0
 15 16  1  0
 15 17  1  0
  6 18  1  0
 18 19  2  0
 19 20  1  0
 19  2  1  0
  1 21  1  0
  1 22  1  0
  1 23  1  0
  3 24  1  0
  5 25  1  0
  5 26  1  0
  5 27  1  0
  7 28  1  0
 10 29  1  0
 10 30  1  0
 12 31  1  0
 12 32  1  0
 16 33  1  0
 16 34  1  0
 16 35  1  0
 17 36  1  0
 17 37  1  0
 17 38  1  0
 18 39  1  0
 20 40  1  0
M  END
