LIG
     RDKit          3D

 33 33  0  0  0  0  0  0  0  0999 V2000
   29.7955   15.1863   11.2642 C   0  0  0  0  0  0  0  0  0  0  0  0
   29.1871   14.5657   10.0987 N   0  0  0  0  0  0  0  0  0  0  0  0
   28.1586   15.2520    9.3450 C   0  0  0  0  0  0  0  0  0  0  0  0
   30.0282   13.6953    9.4154 C   0  0  0  0  0  0  0  0  0  0  0  0
   31.2384   13.7095    9.6278 O   0  0  0  0  0  0  0  0  0  0  0  0
   29.3272   12.7504    8.4201 C   0  0  0  0  0  0  0  0  0  0  0  0
   29.7681   11.4080    8.3603 O   0  0  0  0  0  0  0  0  0  0  0  0
   30.8681   11.1437    7.6206 C   0  0  0  0  0  0  0  0  0  0  0  0
   31.1487    9.8194    7.3199 C   0  0  0  0  0  0  0  0  0  0  0  0
   32.1655    9.4270    6.5123 N   0  0  0  0  0  0  0  0  0  0  0  0
   33.0241   10.3853    6.1092 C   0  0  0  0  0  0  0  0  0  0  0  0
   32.8985   11.7066    6.4937 C   0  0  0  0  0  0  0  0  0  0  0  0
   33.9343   12.6346    6.3322 N   0  0  0  0  0  0  0  0  0  0  0  0
   34.3695   13.3790    7.4273 C   0  0  0  0  0  0  0  0  0  0  0  0
   33.9841   13.1987    8.5854 O   0  0  0  0  0  0  0  0  0  0  0  0
   35.4077   14.4335    7.1372 C   0  0  0  0  0  0  0  0  0  0  0  0
   35.7462   14.6652    5.3736 S   0  0  0  0  0  0  0  0  0  0  0  0
   31.7554   12.0964    7.1692 C   0  0  0  0  0  0  0  0  0  0  0  0
   29.0168   15.4971   11.9607 H   0  0  0  0  0  0  0  0  0  0  0  0
   30.4441   16.0112   10.9582 H   0  0  0  0  0  0  0  0  0  0  0  0
   30.4129   14.4593   11.7908 H   0  0  0  0  0  0  0  0  0  0  0  0
   28.5904   16.1341    8.8652 H   0  0  0  0  0  0  0  0  0  0  0  0
   27.3319   15.5020    9.9986 H   0  0  0  0  0  0  0  0  0  0  0  0
   27.7492   14.6473    8.5342 H   0  0  0  0  0  0  0  0  0  0  0  0
   29.3235   13.2165    7.4259 H   0  0  0  0  0  0  0  0  0  0  0  0
   28.2772   12.6752    8.7145 H   0  0  0  0  0  0  0  0  0  0  0  0
   30.5182    9.0135    7.6908 H   0  0  0  0  0  0  0  0  0  0  0  0
   33.8801   10.0258    5.5474 H   0  0  0  0  0  0  0  0  0  0  0  0
   34.6861   12.4194    5.6837 H   0  0  0  0  0  0  0  0  0  0  0  0
   36.3301   14.1430    7.6458 H   0  0  0  0  0  0  0  0  0  0  0  0
   35.0416   15.3740    7.5465 H   0  0  0  0  0  0  0  0  0  0  0  0
   35.6545   16.0117    5.3776 H   0  0  0  0  0  0  0  0  0  0  0  0
   31.6440   13.1461    7.4004 H   0  0  0  0  0  0  0  0  0  0  0  0
  1  2  1  0
  2  3  1  0
  2  4  1  0
  4  5  2  0
  4  6  1  0
  6  7  1  0
  7  8  1  0
  8  9  2  0
  9 10  1  0
 10 11  2  0
 11 12  1  0
 12 13  1  0
 13 14  1  0
 14 15  2  0
 14 16  1  0
 16 17  1  0
 12 18  2  0
 18  8  1  0
  1 19  1  0
  1 20  1  0
  1 21  1  0
  3 22  1  0
  3 23  1  0
  3 24  1  0
  6 25  1  0
  6 26  1  0
  9 27  1  0
 11 28  1  0
 13 29  1  0
 16 30  1  0
 16 31  1  0
 17 32  1  0
 18 33  1  0
M  END
