LIG
     RDKit          3D

 38 39  0  0  0  0  0  0  0  0999 V2000
    6.1114   -1.1047    0.0701 C   0  0  0  0  0  0  0  0  0  0  0  0
    4.6298   -0.8654   -0.0794 C   0  0  0  0  0  0  0  0  0  0  0  0
    3.8246   -1.7708    0.1087 O   0  0  0  0  0  0  0  0  0  0  0  0
    4.3342    0.4440   -0.4006 N   0  0  0  0  0  0  0  0  0  0  0  0
    3.0593    1.0131   -0.6210 C   0  0  0  0  0  0  0  0  0  0  0  0
    1.8598    0.2939   -0.6030 C   0  0  0  0  0  0  0  0  0  0  0  0
    0.6415    0.9461   -0.8294 C   0  0  0  0  0  0  0  0  0  0  0  0
   -0.5941    0.3594   -0.8316 O   0  0  0  0  0  0  0  0  0  0  0  0
   -0.6465   -1.0509   -0.6457 C   0  0  0  0  0  0  0  0  0  0  0  0
   -2.0974   -1.5393   -0.6684 C   0  0  0  0  0  0  0  0  0  0  0  0
   -2.4477   -2.4116   -1.4677 O   0  0  0  0  0  0  0  0  0  0  0  0
   -2.9812   -1.0030    0.2567 N   0  0  0  0  0  0  0  0  0  0  0  0
   -2.6367   -0.0019    1.2708 C   0  0  0  0  0  0  0  0  0  0  0  0
   -3.6262   -0.0403    2.4403 C   0  0  0  0  0  0  0  0  0  0  0  0
   -4.9878    0.1762    2.0473 O   0  0  0  0  0  0  0  0  0  0  0  0
   -5.2934   -0.2755    0.7193 C   0  0  0  0  0  0  0  0  0  0  0  0
   -4.3875   -1.4074    0.2263 C   0  0  0  0  0  0  0  0  0  0  0  0
    0.6257    2.3230   -1.0763 C   0  0  0  0  0  0  0  0  0  0  0  0
    1.8139    3.0491   -1.1031 C   0  0  0  0  0  0  0  0  0  0  0  0
    3.0153    2.3894   -0.8771 C   0  0  0  0  0  0  0  0  0  0  0  0
    4.1586    3.0934   -0.9018 F   0  0  0  0  0  0  0  0  0  0  0  0
    6.6876   -0.4483   -0.5883 H   0  0  0  0  0  0  0  0  0  0  0  0
    6.3392   -2.1395   -0.2017 H   0  0  0  0  0  0  0  0  0  0  0  0
    6.4022   -0.9268    1.1086 H   0  0  0  0  0  0  0  0  0  0  0  0
    5.1075    1.0992   -0.4664 H   0  0  0  0  0  0  0  0  0  0  0  0
    1.8775   -0.7724   -0.4184 H   0  0  0  0  0  0  0  0  0  0  0  0
   -0.1183   -1.5529   -1.4656 H   0  0  0  0  0  0  0  0  0  0  0  0
   -0.2063   -1.3502    0.3126 H   0  0  0  0  0  0  0  0  0  0  0  0
   -2.6819    0.9752    0.7768 H   0  0  0  0  0  0  0  0  0  0  0  0
   -1.6191   -0.1648    1.6348 H   0  0  0  0  0  0  0  0  0  0  0  0
   -3.3698    0.7262    3.1783 H   0  0  0  0  0  0  0  0  0  0  0  0
   -3.5784   -1.0115    2.9467 H   0  0  0  0  0  0  0  0  0  0  0  0
   -6.3398   -0.5964    0.7131 H   0  0  0  0  0  0  0  0  0  0  0  0
   -5.2120    0.5910    0.0528 H   0  0  0  0  0  0  0  0  0  0  0  0
   -4.4764   -2.2778    0.8867 H   0  0  0  0  0  0  0  0  0  0  0  0
   -4.6766   -1.7131   -0.7843 H   0  0  0  0  0  0  0  0  0  0  0  0
   -0.3206    2.8290   -1.2545 H   0  0  0  0  0  0  0  0  0  0  0  0
    1.8095    4.1163   -1.2982 H   0  0  0  0  0  0  0  0  0  0  0  0
  1  2  1  0
  2  3  2  0
  2  4  1  0
  4  5  1  0
  5  6  2  0
  6  7  1  0
  7  8  1  0
  8  9  1  0
  9 10  1  0
 10 11  2  0
 10 12  1  0
 12 13  1  0
 13 14  1  0
 14 15  1  0
 15 16  1  0
 16 17  1  0
  7 18  2  0
 18 19  1  0
 19 20  2  0
 20 21  1  0
 20  5  1  0
 17 12  1  0
  1 22  1  0
  1 23  1  0
  1 24  1  0
  4 25  1  0
  6 26  1  0
  9 27  1  0
  9 28  1  0
 13 29  1  0
 13 30  1  0
 14 31  1  0
 14 32  1  0
 16 33  1  0
 16 34  1  0
 17 35  1  0
 17 36  1  0
 18 37  1  0
 19 38  1  0
M  END
