LIG
     RDKit          3D

 27 27  0  0  0  0  0  0  0  0999 V2000
   34.2003   10.4329    3.4256 C   0  0  0  0  0  0  0  0  0  0  0  0
   34.1394   11.5688    4.4166 C   0  0  0  0  0  0  0  0  0  0  0  0
   35.1506   11.9036    5.0216 O   0  0  0  0  0  0  0  0  0  0  0  0
   32.8722   12.1354    4.5242 N   0  0  0  0  0  0  0  0  0  0  0  0
   32.1740   12.5255    5.7100 C   0  0  0  0  0  0  0  0  0  0  0  0
   30.7973   12.7755    5.6463 C   0  0  0  0  0  0  0  0  0  0  0  0
   29.9727   12.6199    6.7542 C   0  0  0  0  0  0  0  0  0  0  0  0
   30.5531   12.4590    7.9848 C   0  0  0  0  0  0  0  0  0  0  0  0
   31.9258   12.6040    8.0802 C   0  0  0  0  0  0  0  0  0  0  0  0
   32.7384   12.6366    6.9567 C   0  0  0  0  0  0  0  0  0  0  0  0
   34.0540   13.0414    7.0174 N   0  0  0  0  0  0  0  0  0  0  0  0
   34.7393   13.4763    8.1097 C   0  0  0  0  0  0  0  0  0  0  0  0
   34.4772   13.2214    9.2789 O   0  0  0  0  0  0  0  0  0  0  0  0
   35.9070   14.3282    7.6837 C   0  0  0  0  0  0  0  0  0  0  0  0
   35.7066   14.9938    6.4396 O   0  0  0  0  0  0  0  0  0  0  0  0
   34.0124    9.4912    3.9479 H   0  0  0  0  0  0  0  0  0  0  0  0
   35.1944   10.4042    2.9700 H   0  0  0  0  0  0  0  0  0  0  0  0
   33.4677   10.5626    2.6247 H   0  0  0  0  0  0  0  0  0  0  0  0
   32.2979   12.0417    3.7010 H   0  0  0  0  0  0  0  0  0  0  0  0
   30.3208   13.0390    4.7059 H   0  0  0  0  0  0  0  0  0  0  0  0
   28.8923   12.6940    6.6685 H   0  0  0  0  0  0  0  0  0  0  0  0
   29.9335   12.4175    8.8750 H   0  0  0  0  0  0  0  0  0  0  0  0
   32.3323   12.8083    9.0557 H   0  0  0  0  0  0  0  0  0  0  0  0
   34.5694   13.1395    6.1393 H   0  0  0  0  0  0  0  0  0  0  0  0
   36.0841   15.0715    8.4577 H   0  0  0  0  0  0  0  0  0  0  0  0
   36.7857   13.6830    7.5928 H   0  0  0  0  0  0  0  0  0  0  0  0
   35.2460   15.8380    6.6240 H   0  0  0  0  0  0  0  0  0  0  0  0
  1  2  1  0
  2  3  2  0
  2  4  1  0
  4  5  1  0
  5  6  2  0
  6  7  1  0
  7  8  2  0
  8  9  1  0
  9 10  2  0
 10 11  1  0
 11 12  1  0
 12 13  2  0
 12 14  1  0
 14 15  1  0
 10  5  1  0
  1 16  1  0
  1 17  1  0
  1 18  1  0
  4 19  1  0
  6 20  1  0
  7 21  1  0
  8 22  1  0
  9 23  1  0
 11 24  1  0
 14 25  1  0
 14 26  1  0
 15 27  1  0
M  END
