LIG
     RDKit          3D

 39 40  0  0  0  0  0  0  0  0999 V2000
   28.6262   15.8412    8.3067 N   0  0  0  0  0  0  0  0  0  0  0  0
   28.3726   14.7223    8.1445 C   0  0  0  0  0  0  0  0  0  0  0  0
   28.1151   13.2970    7.9850 C   0  0  0  0  0  0  0  0  0  0  0  0
   29.3200   12.6388    7.3827 C   0  0  0  0  0  0  0  0  0  0  0  0
   29.4083   12.4580    6.1695 O   0  0  0  0  0  0  0  0  0  0  0  0
   30.3196   12.3726    8.3079 N   0  0  0  0  0  0  0  0  0  0  0  0
   31.6612   12.5051    7.9073 C   0  0  0  0  0  0  0  0  0  0  0  0
   32.1572   11.9086    6.7570 C   0  0  0  0  0  0  0  0  0  0  0  0
   33.4301   12.2490    6.3210 C   0  0  0  0  0  0  0  0  0  0  0  0
   33.9284   11.7161    5.1664 O   0  0  0  0  0  0  0  0  0  0  0  0
   33.3604   12.3808    4.0431 C   0  0  0  0  0  0  0  0  0  0  0  0
   33.7826   13.8368    3.8716 C   0  0  0  0  0  0  0  0  0  0  0  0
   32.9371   14.7276    3.9865 O   0  0  0  0  0  0  0  0  0  0  0  0
   35.1116   14.0777    3.5716 N   0  0  0  0  0  0  0  0  0  0  0  0
   35.5978   15.4482    3.4341 C   0  0  0  0  0  0  0  0  0  0  0  0
   36.7692   15.6809    4.3933 C   0  0  0  0  0  0  0  0  0  0  0  0
   37.8241   14.7231    4.1710 O   0  0  0  0  0  0  0  0  0  0  0  0
   37.3422   13.3864    4.3665 C   0  0  0  0  0  0  0  0  0  0  0  0
   36.1673   13.0722    3.4330 C   0  0  0  0  0  0  0  0  0  0  0  0
   34.2258   13.1305    7.0480 C   0  0  0  0  0  0  0  0  0  0  0  0
   33.7567   13.6678    8.2373 C   0  0  0  0  0  0  0  0  0  0  0  0
   32.4802   13.3460    8.6605 C   0  0  0  0  0  0  0  0  0  0  0  0
   32.0138   13.8662    9.8035 F   0  0  0  0  0  0  0  0  0  0  0  0
   27.9059   12.8436    8.9534 H   0  0  0  0  0  0  0  0  0  0  0  0
   27.2713   13.1175    7.3146 H   0  0  0  0  0  0  0  0  0  0  0  0
   30.1216   12.6639    9.2705 H   0  0  0  0  0  0  0  0  0  0  0  0
   31.5539   11.2055    6.1950 H   0  0  0  0  0  0  0  0  0  0  0  0
   32.2701   12.3599    4.0756 H   0  0  0  0  0  0  0  0  0  0  0  0
   33.6373   11.8267    3.1390 H   0  0  0  0  0  0  0  0  0  0  0  0
   34.7939   16.1692    3.5866 H   0  0  0  0  0  0  0  0  0  0  0  0
   35.9437   15.5523    2.3986 H   0  0  0  0  0  0  0  0  0  0  0  0
   37.1955   16.6754    4.2336 H   0  0  0  0  0  0  0  0  0  0  0  0
   36.4454   15.5976    5.4364 H   0  0  0  0  0  0  0  0  0  0  0  0
   37.0647   13.2612    5.4176 H   0  0  0  0  0  0  0  0  0  0  0  0
   38.1715   12.7019    4.1616 H   0  0  0  0  0  0  0  0  0  0  0  0
   35.8113   12.0574    3.6100 H   0  0  0  0  0  0  0  0  0  0  0  0
   36.5046   13.1259    2.3908 H   0  0  0  0  0  0  0  0  0  0  0  0
   35.2219   13.3862    6.7049 H   0  0  0  0  0  0  0  0  0  0  0  0
   34.3713   14.3593    8.7987 H   0  0  0  0  0  0  0  0  0  0  0  0
  1  2  3  0
  2  3  1  0
  3  4  1  0
  4  5  2  0
  4  6  1  0
  6  7  1  0
  7  8  2  0
  8  9  1  0
  9 10  1  0
 10 11  1  0
 11 12  1  0
 12 13  2  0
 12 14  1  0
 14 15  1  0
 15 16  1  0
 16 17  1  0
 17 18  1  0
 18 19  1  0
  9 20  2  0
 20 21  1  0
 21 22  2  0
 22 23  1  0
 22  7  1  0
 19 14  1  0
  3 24  1  0
  3 25  1  0
  6 26  1  0
  8 27  1  0
 11 28  1  0
 11 29  1  0
 15 30  1  0
 15 31  1  0
 16 32  1  0
 16 33  1  0
 18 34  1  0
 18 35  1  0
 19 36  1  0
 19 37  1  0
 20 38  1  0
 21 39  1  0
M  END
