LIG
     RDKit          3D

 28 28  0  0  0  0  0  0  0  0999 V2000
   32.9160    9.2813    6.1972 C   0  0  0  0  0  0  0  0  0  0  0  0
   33.1774   10.6199    5.9650 C   0  0  0  0  0  0  0  0  0  0  0  0
   32.5054   11.5844    6.7160 C   0  0  0  0  0  0  0  0  0  0  0  0
   33.0355   12.8948    6.6555 N   0  0  0  0  0  0  0  0  0  0  0  0
   33.7877   13.3493    7.7435 C   0  0  0  0  0  0  0  0  0  0  0  0
   33.7062   12.9145    8.8928 O   0  0  0  0  0  0  0  0  0  0  0  0
   34.8053   14.4361    7.3608 C   0  0  0  0  0  0  0  0  0  0  0  0
   34.7181   14.8319    5.9966 O   0  0  0  0  0  0  0  0  0  0  0  0
   31.4776   11.1967    7.6056 C   0  0  0  0  0  0  0  0  0  0  0  0
   30.5770   12.0894    8.2172 N   0  0  0  0  0  0  0  0  0  0  0  0
   29.7766   12.8753    7.4031 C   0  0  0  0  0  0  0  0  0  0  0  0
   29.9604   13.0848    6.2058 O   0  0  0  0  0  0  0  0  0  0  0  0
   28.5543   13.3960    8.1023 C   0  0  0  0  0  0  0  0  0  0  0  0
   28.5596   14.8441    8.1002 C   0  0  0  0  0  0  0  0  0  0  0  0
   28.5293   15.9980    8.1748 N   0  0  0  0  0  0  0  0  0  0  0  0
   31.2434    9.8537    7.8593 C   0  0  0  0  0  0  0  0  0  0  0  0
   31.9778    8.9222    7.1642 C   0  0  0  0  0  0  0  0  0  0  0  0
   31.7918    7.6418    7.4544 F   0  0  0  0  0  0  0  0  0  0  0  0
   33.4817    8.5185    5.6763 H   0  0  0  0  0  0  0  0  0  0  0  0
   33.9712   10.8958    5.2761 H   0  0  0  0  0  0  0  0  0  0  0  0
   33.5166   13.1508    5.7933 H   0  0  0  0  0  0  0  0  0  0  0  0
   35.8119   14.0507    7.5440 H   0  0  0  0  0  0  0  0  0  0  0  0
   34.6198   15.2981    8.0023 H   0  0  0  0  0  0  0  0  0  0  0  0
   34.9893   15.7774    5.9492 H   0  0  0  0  0  0  0  0  0  0  0  0
   30.1189   11.7341    9.0580 H   0  0  0  0  0  0  0  0  0  0  0  0
   27.6805   13.0050    7.5708 H   0  0  0  0  0  0  0  0  0  0  0  0
   28.4904   13.0324    9.1303 H   0  0  0  0  0  0  0  0  0  0  0  0
   30.4906    9.5042    8.5575 H   0  0  0  0  0  0  0  0  0  0  0  0
  1  2  2  0
  2  3  1  0
  3  4  1  0
  4  5  1  0
  5  6  2  0
  5  7  1  0
  7  8  1  0
  3  9  2  0
  9 10  1  0
 10 11  1  0
 11 12  2  0
 11 13  1  0
 13 14  1  0
 14 15  3  0
  9 16  1  0
 16 17  2  0
 17 18  1  0
 17  1  1  0
  1 19  1  0
  2 20  1  0
  4 21  1  0
  7 22  1  0
  7 23  1  0
  8 24  1  0
 10 25  1  0
 13 26  1  0
 13 27  1  0
 16 28  1  0
M  END
