LIG
     RDKit          3D

 40 41  0  0  0  0  0  0  0  0999 V2000
   35.1140    8.4731    4.2051 C   0  0  0  0  0  0  0  0  0  0  0  0
   34.5000    9.6245    4.9453 C   0  0  0  0  0  0  0  0  0  0  0  0
   34.8637   10.7675    4.6752 O   0  0  0  0  0  0  0  0  0  0  0  0
   33.5200    9.1925    5.8588 N   0  0  0  0  0  0  0  0  0  0  0  0
   32.5657    9.9996    6.5313 C   0  0  0  0  0  0  0  0  0  0  0  0
   32.4555   11.2903    6.1031 C   0  0  0  0  0  0  0  0  0  0  0  0
   31.5106   12.1389    6.6171 C   0  0  0  0  0  0  0  0  0  0  0  0
   31.2736   13.3612    6.0575 O   0  0  0  0  0  0  0  0  0  0  0  0
   32.3728   13.8586    5.3145 C   0  0  0  0  0  0  0  0  0  0  0  0
   33.5743   14.0461    6.2355 C   0  0  0  0  0  0  0  0  0  0  0  0
   33.4540   13.9873    7.4632 O   0  0  0  0  0  0  0  0  0  0  0  0
   34.7879   14.2364    5.6317 N   0  0  0  0  0  0  0  0  0  0  0  0
   35.9203   14.4278    6.5165 C   0  0  0  0  0  0  0  0  0  0  0  0
   37.1625   13.8195    5.8827 C   0  0  0  0  0  0  0  0  0  0  0  0
   37.4378   14.4884    4.6424 O   0  0  0  0  0  0  0  0  0  0  0  0
   36.3763   14.2117    3.7174 C   0  0  0  0  0  0  0  0  0  0  0  0
   35.0061   14.6510    4.2450 C   0  0  0  0  0  0  0  0  0  0  0  0
   30.6980   11.7988    7.6059 N   0  0  0  0  0  0  0  0  0  0  0  0
   30.7934   10.5394    8.0460 C   0  0  0  0  0  0  0  0  0  0  0  0
   31.6568    9.5871    7.5144 C   0  0  0  0  0  0  0  0  0  0  0  0
   31.4799    8.2257    8.0650 C   0  0  0  0  0  0  0  0  0  0  0  0
   35.6202    7.8021    4.9026 H   0  0  0  0  0  0  0  0  0  0  0  0
   35.8554    8.8472    3.4924 H   0  0  0  0  0  0  0  0  0  0  0  0
   34.3461    7.9312    3.6478 H   0  0  0  0  0  0  0  0  0  0  0  0
   33.5082    8.1958    6.0667 H   0  0  0  0  0  0  0  0  0  0  0  0
   33.0589   11.6062    5.2779 H   0  0  0  0  0  0  0  0  0  0  0  0
   32.0840   14.8153    4.8860 H   0  0  0  0  0  0  0  0  0  0  0  0
   32.5755   13.2426    4.4333 H   0  0  0  0  0  0  0  0  0  0  0  0
   35.7556   13.9770    7.4998 H   0  0  0  0  0  0  0  0  0  0  0  0
   36.0102   15.5088    6.6394 H   0  0  0  0  0  0  0  0  0  0  0  0
   38.0428   13.9123    6.5218 H   0  0  0  0  0  0  0  0  0  0  0  0
   37.0286   12.7466    5.6946 H   0  0  0  0  0  0  0  0  0  0  0  0
   36.6003   14.7334    2.7814 H   0  0  0  0  0  0  0  0  0  0  0  0
   36.3757   13.1369    3.4985 H   0  0  0  0  0  0  0  0  0  0  0  0
   34.2212   14.2732    3.5866 H   0  0  0  0  0  0  0  0  0  0  0  0
   34.9408   15.7382    4.2204 H   0  0  0  0  0  0  0  0  0  0  0  0
   30.0924   10.2911    8.8388 H   0  0  0  0  0  0  0  0  0  0  0  0
   30.4186    7.9885    8.1958 H   0  0  0  0  0  0  0  0  0  0  0  0
   31.9764    8.1047    9.0228 H   0  0  0  0  0  0  0  0  0  0  0  0
   31.8888    7.5191    7.3563 H   0  0  0  0  0  0  0  0  0  0  0  0
  1  2  1  0
  2  3  2  0
  2  4  1  0
  4  5  1  0
  5  6  2  0
  6  7  1  0
  7  8  1  0
  8  9  1  0
  9 10  1  0
 10 11  2  0
 10 12  1  0
 12 13  1  0
 13 14  1  0
 14 15  1  0
 15 16  1  0
 16 17  1  0
  7 18  2  0
 18 19  1  0
 19 20  2  0
 20 21  1  0
 20  5  1  0
 17 12  1  0
  1 22  1  0
  1 23  1  0
  1 24  1  0
  4 25  1  0
  6 26  1  0
  9 27  1  0
  9 28  1  0
 13 29  1  0
 13 30  1  0
 14 31  1  0
 14 32  1  0
 16 33  1  0
 16 34  1  0
 17 35  1  0
 17 36  1  0
 19 37  1  0
 21 38  1  0
 21 39  1  0
 21 40  1  0
M  END
