LIG
     RDKit          3D

 45 47  0  0  0  0  0  0  0  0999 V2000
   31.0784    9.3174    7.8228 C   0  0  0  0  0  0  0  0  0  0  0  0
   31.8693   10.2142    6.9129 C   0  0  0  0  0  0  0  0  0  0  0  0
   33.0211    9.7053    6.2965 C   0  0  0  0  0  0  0  0  0  0  0  0
   33.8053   10.4882    5.4396 C   0  0  0  0  0  0  0  0  0  0  0  0
   33.4492   11.8055    5.1719 C   0  0  0  0  0  0  0  0  0  0  0  0
   34.1489   12.5052    4.1797 N   0  0  0  0  0  0  0  0  0  0  0  0
   33.7948   13.7180    3.6061 C   0  0  0  0  0  0  0  0  0  0  0  0
   32.8771   14.4619    3.9486 O   0  0  0  0  0  0  0  0  0  0  0  0
   34.6198   13.9956    2.3450 C   0  0  0  0  0  0  0  0  0  0  0  0
   34.9574   15.4654    2.1866 C   0  0  0  0  0  0  0  0  0  0  0  0
   36.2368   15.4042    1.3946 C   0  0  0  0  0  0  0  0  0  0  0  0
   36.9065   14.1814    1.9804 C   0  0  0  0  0  0  0  0  0  0  0  0
   35.8569   13.2621    2.3149 O   0  0  0  0  0  0  0  0  0  0  0  0
   32.3382   12.3313    5.8069 C   0  0  0  0  0  0  0  0  0  0  0  0
   31.5322   11.5376    6.6226 C   0  0  0  0  0  0  0  0  0  0  0  0
   30.2758   12.0474    6.7185 O   0  0  0  0  0  0  0  0  0  0  0  0
   29.7820   12.3586    7.9915 C   0  0  0  0  0  0  0  0  0  0  0  0
   28.2734   12.4536    7.7398 C   0  0  0  0  0  0  0  0  0  0  0  0
   28.0965   13.8393    7.1926 C   0  0  0  0  0  0  0  0  0  0  0  0
   28.9612   14.5590    8.0684 N   0  0  0  0  0  0  0  0  0  0  0  0
   28.7317   15.9267    8.3812 C   0  0  0  0  0  0  0  0  0  0  0  0
   30.0435   13.7875    8.4942 C   0  0  0  0  0  0  0  0  0  0  0  0
   30.9945   14.1898    9.1467 O   0  0  0  0  0  0  0  0  0  0  0  0
   31.2248    9.6121    8.8617 H   0  0  0  0  0  0  0  0  0  0  0  0
   31.3902    8.2730    7.7251 H   0  0  0  0  0  0  0  0  0  0  0  0
   30.0096    9.3572    7.6249 H   0  0  0  0  0  0  0  0  0  0  0  0
   33.3080    8.6664    6.4473 H   0  0  0  0  0  0  0  0  0  0  0  0
   34.6730   10.0359    4.9659 H   0  0  0  0  0  0  0  0  0  0  0  0
   34.9621   12.0584    3.7601 H   0  0  0  0  0  0  0  0  0  0  0  0
   34.0274   13.6462    1.4903 H   0  0  0  0  0  0  0  0  0  0  0  0
   35.1413   15.9348    3.1603 H   0  0  0  0  0  0  0  0  0  0  0  0
   34.1657   16.0314    1.6871 H   0  0  0  0  0  0  0  0  0  0  0  0
   36.0091   15.2356    0.3354 H   0  0  0  0  0  0  0  0  0  0  0  0
   36.8478   16.3067    1.4762 H   0  0  0  0  0  0  0  0  0  0  0  0
   37.6034   13.7075    1.2837 H   0  0  0  0  0  0  0  0  0  0  0  0
   37.4443   14.4261    2.9027 H   0  0  0  0  0  0  0  0  0  0  0  0
   31.9919   13.3367    5.6013 H   0  0  0  0  0  0  0  0  0  0  0  0
   30.0152   11.6097    8.7446 H   0  0  0  0  0  0  0  0  0  0  0  0
   27.8719   11.6991    7.0593 H   0  0  0  0  0  0  0  0  0  0  0  0
   27.7526   12.4350    8.6967 H   0  0  0  0  0  0  0  0  0  0  0  0
   28.4381   13.9547    6.1593 H   0  0  0  0  0  0  0  0  0  0  0  0
   27.0682   14.1790    7.2959 H   0  0  0  0  0  0  0  0  0  0  0  0
   29.4911   16.2434    9.0844 H   0  0  0  0  0  0  0  0  0  0  0  0
   27.7514   16.0044    8.8553 H   0  0  0  0  0  0  0  0  0  0  0  0
   28.7675   16.5220    7.4701 H   0  0  0  0  0  0  0  0  0  0  0  0
  1  2  1  0
  2  3  2  0
  3  4  1  0
  4  5  2  0
  5  6  1  0
  6  7  1  0
  7  8  2  0
  7  9  1  0
  9 10  1  0
 10 11  1  0
 11 12  1  0
 12 13  1  0
  5 14  1  0
 14 15  2  0
 15 16  1  0
 16 17  1  0
 17 18  1  0
 18 19  1  0
 19 20  1  0
 20 21  1  0
 20 22  1  0
 22 23  2  0
 15  2  1  0
 22 17  1  0
 13  9  1  0
  1 24  1  0
  1 25  1  0
  1 26  1  0
  3 27  1  0
  4 28  1  0
  6 29  1  0
  9 30  1  0
 10 31  1  0
 10 32  1  0
 11 33  1  0
 11 34  1  0
 12 35  1  0
 12 36  1  0
 14 37  1  0
 17 38  1  0
 18 39  1  0
 18 40  1  0
 19 41  1  0
 19 42  1  0
 21 43  1  0
 21 44  1  0
 21 45  1  0
M  END
