LIG
     RDKit          3D

 40 41  0  0  0  0  0  0  0  0999 V2000
   -2.3301   -3.2526   -2.8683 C   0  0  0  0  0  0  0  0  0  0  0  0
   -2.0554   -2.1490   -1.8927 C   0  0  0  0  0  0  0  0  0  0  0  0
   -0.9602   -1.3245   -2.0577 C   0  0  0  0  0  0  0  0  0  0  0  0
   -0.7503   -0.3276   -1.1113 C   0  0  0  0  0  0  0  0  0  0  0  0
    0.3403    0.4945   -1.2764 O   0  0  0  0  0  0  0  0  0  0  0  0
    1.5016   -0.0821   -0.6874 C   0  0  0  0  0  0  0  0  0  0  0  0
    2.5971   -0.2756   -1.7361 C   0  0  0  0  0  0  0  0  0  0  0  0
    3.8782   -0.1351   -0.9378 C   0  0  0  0  0  0  0  0  0  0  0  0
    3.5354    0.8453    0.0586 N   0  0  0  0  0  0  0  0  0  0  0  0
    4.5205    1.4251    0.9404 C   0  0  0  0  0  0  0  0  0  0  0  0
    2.1667    0.8787    0.2983 C   0  0  0  0  0  0  0  0  0  0  0  0
    1.5888    1.5317    1.1535 O   0  0  0  0  0  0  0  0  0  0  0  0
   -1.6291   -0.1258   -0.0329 C   0  0  0  0  0  0  0  0  0  0  0  0
   -1.3252    0.9575    0.8250 N   0  0  0  0  0  0  0  0  0  0  0  0
   -1.6460    1.1272    2.1553 C   0  0  0  0  0  0  0  0  0  0  0  0
   -2.1818    0.3050    2.8896 O   0  0  0  0  0  0  0  0  0  0  0  0
   -1.2082    2.4990    2.6853 C   0  0  0  0  0  0  0  0  0  0  0  0
   -1.2760    3.5306    1.7090 O   0  0  0  0  0  0  0  0  0  0  0  0
   -2.7339   -0.9812    0.0310 C   0  0  0  0  0  0  0  0  0  0  0  0
   -3.8556   -0.8550    1.0154 C   0  0  0  0  0  0  0  0  0  0  0  0
   -2.9261   -1.9912   -0.8721 N   0  0  0  0  0  0  0  0  0  0  0  0
   -2.5005   -2.8400   -3.8675 H   0  0  0  0  0  0  0  0  0  0  0  0
   -3.2206   -3.8186   -2.5763 H   0  0  0  0  0  0  0  0  0  0  0  0
   -1.4836   -3.9454   -2.9044 H   0  0  0  0  0  0  0  0  0  0  0  0
   -0.2856   -1.4488   -2.8962 H   0  0  0  0  0  0  0  0  0  0  0  0
    1.3121   -1.0214   -0.1471 H   0  0  0  0  0  0  0  0  0  0  0  0
    2.5228   -1.2402   -2.2472 H   0  0  0  0  0  0  0  0  0  0  0  0
    2.5324    0.5059   -2.5042 H   0  0  0  0  0  0  0  0  0  0  0  0
    4.1474   -1.0689   -0.4330 H   0  0  0  0  0  0  0  0  0  0  0  0
    4.7133    0.2138   -1.5513 H   0  0  0  0  0  0  0  0  0  0  0  0
    5.3162    1.8739    0.3402 H   0  0  0  0  0  0  0  0  0  0  0  0
    4.9335    0.6347    1.5732 H   0  0  0  0  0  0  0  0  0  0  0  0
    4.0628    2.1887    1.5748 H   0  0  0  0  0  0  0  0  0  0  0  0
   -0.5727    1.5735    0.5091 H   0  0  0  0  0  0  0  0  0  0  0  0
   -0.1795    2.4237    3.0481 H   0  0  0  0  0  0  0  0  0  0  0  0
   -1.8573    2.7787    3.5209 H   0  0  0  0  0  0  0  0  0  0  0  0
   -2.2092    3.6006    1.4417 H   0  0  0  0  0  0  0  0  0  0  0  0
   -3.6097   -1.3730    1.9457 H   0  0  0  0  0  0  0  0  0  0  0  0
   -4.1096    0.1918    1.2045 H   0  0  0  0  0  0  0  0  0  0  0  0
   -4.7630   -1.3239    0.6166 H   0  0  0  0  0  0  0  0  0  0  0  0
  1  2  1  0
  2  3  2  0
  3  4  1  0
  4  5  1  0
  5  6  1  0
  6  7  1  0
  7  8  1  0
  8  9  1  0
  9 10  1  0
  9 11  1  0
 11 12  2  0
  4 13  2  0
 13 14  1  0
 14 15  1  0
 15 16  2  0
 15 17  1  0
 17 18  1  0
 13 19  1  0
 19 20  1  0
 19 21  2  0
 21  2  1  0
 11  6  1  0
  1 22  1  0
  1 23  1  0
  1 24  1  0
  3 25  1  0
  6 26  1  0
  7 27  1  0
  7 28  1  0
  8 29  1  0
  8 30  1  0
 10 31  1  0
 10 32  1  0
 10 33  1  0
 14 34  1  0
 17 35  1  0
 17 36  1  0
 18 37  1  0
 20 38  1  0
 20 39  1  0
 20 40  1  0
M  END
