LIG
     RDKit          3D

 38 39  0  0  0  0  0  0  0  0999 V2000
   34.4770    9.6170    4.1420 C   0  0  0  0  0  0  0  0  0  0  0  0
   34.7220   11.0190    4.6240 C   0  0  0  0  0  0  0  0  0  0  0  0
   35.7630   11.6170    4.3630 O   0  0  0  0  0  0  0  0  0  0  0  0
   33.6960   11.5950    5.3080 N   0  0  0  0  0  0  0  0  0  0  0  0
   32.8761   10.6374    6.8783 C   0  0  0  0  0  0  0  0  0  0  0  0
   31.5630    9.4800    8.9430 C   0  0  0  0  0  0  0  0  0  0  0  0
   31.1650   10.7950    9.1290 C   0  0  0  0  0  0  0  0  0  0  0  0
   31.8380   11.8440    8.5230 C   0  0  0  0  0  0  0  0  0  0  0  0
   32.8900   11.5720    7.6690 C   0  0  0  0  0  0  0  0  0  0  0  0
   33.3940   12.4720    6.7660 O   0  0  0  0  0  0  0  0  0  0  0  0
   32.5070   13.2300    6.0470 C   0  0  0  0  0  0  0  0  0  0  0  0
   32.8430   14.5690    6.5820 C   0  0  0  0  0  0  0  0  0  0  0  0
   32.2450   15.0040    7.5510 O   0  0  0  0  0  0  0  0  0  0  0  0
   33.9260   15.1770    6.0590 N   0  0  0  0  0  0  0  0  0  0  0  0
   34.5050   15.1130    4.7140 C   0  0  0  0  0  0  0  0  0  0  0  0
   35.9790   14.7950    4.8070 C   0  0  0  0  0  0  0  0  0  0  0  0
   36.6530   15.7410    5.6230 O   0  0  0  0  0  0  0  0  0  0  0  0
   36.2000   15.5640    6.9400 C   0  0  0  0  0  0  0  0  0  0  0  0
   34.7260   15.9040    7.0650 C   0  0  0  0  0  0  0  0  0  0  0  0
   33.3470   10.2740    7.4930 C   0  0  0  0  0  0  0  0  0  0  0  0
   35.4315    9.0848    4.0894 H   0  0  0  0  0  0  0  0  0  0  0  0
   34.8157    8.9103    4.9052 H   0  0  0  0  0  0  0  0  0  0  0  0
   33.8186    9.0592    4.8146 H   0  0  0  0  0  0  0  0  0  0  0  0
   33.7425   12.5975    5.4710 H   0  0  0  0  0  0  0  0  0  0  0  0
   31.7011    8.8479    9.8196 H   0  0  0  0  0  0  0  0  0  0  0  0
   30.2984   11.0155    9.7670 H   0  0  0  0  0  0  0  0  0  0  0  0
   31.5384   12.8743    8.7080 H   0  0  0  0  0  0  0  0  0  0  0  0
   32.7977   13.1912    5.0299 H   0  0  0  0  0  0  0  0  0  0  0  0
   31.4954   13.0030    6.2160 H   0  0  0  0  0  0  0  0  0  0  0  0
   34.3470   16.0564    4.1941 H   0  0  0  0  0  0  0  0  0  0  0  0
   33.9703   14.3198    4.1850 H   0  0  0  0  0  0  0  0  0  0  0  0
   36.4435   14.8089    3.8204 H   0  0  0  0  0  0  0  0  0  0  0  0
   36.1338   13.8094    5.2412 H   0  0  0  0  0  0  0  0  0  0  0  0
   36.3692   14.5248    7.2196 H   0  0  0  0  0  0  0  0  0  0  0  0
   36.7918   16.1980    7.5963 H   0  0  0  0  0  0  0  0  0  0  0  0
   34.5554   16.9717    6.8739 H   0  0  0  0  0  0  0  0  0  0  0  0
   34.3604   15.6790    8.0727 H   0  0  0  0  0  0  0  0  0  0  0  0
   32.7003    9.5584    6.9923 H   0  0  0  0  0  0  0  0  0  0  0  0
  1  2  1  0
  2  3  2  0
  2  4  1  0
  4  5  1  0
  5  6  4  0
  6  7  4  0
  7  8  4  0
  8  9  4  0
  9 10  1  0
 10 11  1  0
 11 12  1  0
 12 13  2  0
 12 14  1  0
 14 15  1  0
 15 16  1  0
 16 17  1  0
 17 18  1  0
 18 19  1  0
  9 20  4  0
 20  5  4  0
 19 14  1  0
  1 21  1  0
  1 22  1  0
  1 23  1  0
  4 24  1  0
  6 25  1  0
  7 26  1  0
  8 27  1  0
 11 28  1  0
 11 29  1  0
 15 30  1  0
 15 31  1  0
 16 32  1  0
 16 33  1  0
 18 34  1  0
 18 35  1  0
 19 36  1  0
 19 37  1  0
 20 38  1  0
M  END
$$$$
LIG
     RDKit          3D

 38 39  0  0  0  0  0  0  0  0999 V2000
   34.4770    9.6170    4.1420 C   0  0  0  0  0  0  0  0  0  0  0  0
   34.7220   11.0190    4.6240 C   0  0  0  0  0  0  0  0  0  0  0  0
   35.7630   11.6170    4.3630 O   0  0  0  0  0  0  0  0  0  0  0  0
   33.6960   11.5950    5.3080 N   0  0  0  0  0  0  0  0  0  0  0  0
   33.1287   10.8886    6.9524 C   0  0  0  0  0  0  0  0  0  0  0  0
   31.5630    9.4800    8.9430 C   0  0  0  0  0  0  0  0  0  0  0  0
   31.1650   10.7950    9.1290 C   0  0  0  0  0  0  0  0  0  0  0  0
   31.8380   11.8440    8.5230 C   0  0  0  0  0  0  0  0  0  0  0  0
   32.8900   11.5720    7.6690 C   0  0  0  0  0  0  0  0  0  0  0  0
   33.3940   12.4720    6.7660 O   0  0  0  0  0  0  0  0  0  0  0  0
   32.5070   13.2300    6.0470 C   0  0  0  0  0  0  0  0  0  0  0  0
   32.8430   14.5690    6.5820 C   0  0  0  0  0  0  0  0  0  0  0  0
   32.2450   15.0040    7.5510 O   0  0  0  0  0  0  0  0  0  0  0  0
   33.9260   15.1770    6.0590 N   0  0  0  0  0  0  0  0  0  0  0  0
   34.7260   15.9040    7.0650 C   0  0  0  0  0  0  0  0  0  0  0  0
   36.2000   15.5640    6.9400 C   0  0  0  0  0  0  0  0  0  0  0  0
   36.6530   15.7410    5.6230 O   0  0  0  0  0  0  0  0  0  0  0  0
   35.9790   14.7950    4.8070 C   0  0  0  0  0  0  0  0  0  0  0  0
   34.5050   15.1130    4.7140 C   0  0  0  0  0  0  0  0  0  0  0  0
   33.3470   10.2740    7.4930 C   0  0  0  0  0  0  0  0  0  0  0  0
   33.5857    9.5999    3.5077 H   0  0  0  0  0  0  0  0  0  0  0  0
   33.4946    9.2781    4.4868 H   0  0  0  0  0  0  0  0  0  0  0  0
   34.3411    8.9280    4.9820 H   0  0  0  0  0  0  0  0  0  0  0  0
   33.6429   12.6107    5.3020 H   0  0  0  0  0  0  0  0  0  0  0  0
   32.5274    9.2970    8.4736 H   0  0  0  0  0  0  0  0  0  0  0  0
   30.2925   11.0048    9.7590 H   0  0  0  0  0  0  0  0  0  0  0  0
   31.4969   12.8544    8.7212 H   0  0  0  0  0  0  0  0  0  0  0  0
   32.6343   13.1657    5.0183 H   0  0  0  0  0  0  0  0  0  0  0  0
   31.5437   12.9814    6.3879 H   0  0  0  0  0  0  0  0  0  0  0  0
   34.5680   16.9840    6.9674 H   0  0  0  0  0  0  0  0  0  0  0  0
   34.3381   15.5920    8.0434 H   0  0  0  0  0  0  0  0  0  0  0  0
   36.3764   14.5305    7.2294 H   0  0  0  0  0  0  0  0  0  0  0  0
   36.7895   16.2088    7.5908 H   0  0  0  0  0  0  0  0  0  0  0  0
   36.1371   13.8054    5.2368 H   0  0  0  0  0  0  0  0  0  0  0  0
   36.4403   14.8156    3.8212 H   0  0  0  0  0  0  0  0  0  0  0  0
   33.9841   14.3636    4.1202 H   0  0  0  0  0  0  0  0  0  0  0  0
   34.3490   16.0963    4.2641 H   0  0  0  0  0  0  0  0  0  0  0  0
   32.8981    9.6675    6.7065 H   0  0  0  0  0  0  0  0  0  0  0  0
  1  2  1  0
  2  3  2  0
  2  4  1  0
  4  5  1  0
  5  6  4  0
  6  7  4  0
  7  8  4  0
  8  9  4  0
  9 10  1  0
 10 11  1  0
 11 12  1  0
 12 13  2  0
 12 14  1  0
 14 15  1  0
 15 16  1  0
 16 17  1  0
 17 18  1  0
 18 19  1  0
  9 20  4  0
 20  5  4  0
 19 14  1  0
  1 21  1  0
  1 22  1  0
  1 23  1  0
  4 24  1  0
  6 25  1  0
  7 26  1  0
  8 27  1  0
 11 28  1  0
 11 29  1  0
 15 30  1  0
 15 31  1  0
 16 32  1  0
 16 33  1  0
 18 34  1  0
 18 35  1  0
 19 36  1  0
 19 37  1  0
 20 38  1  0
M  END
$$$$
LIG
     RDKit          3D

 38 39  0  0  0  0  0  0  0  0999 V2000
   34.4770    9.6170    4.1420 C   0  0  0  0  0  0  0  0  0  0  0  0
   34.7220   11.0190    4.6240 C   0  0  0  0  0  0  0  0  0  0  0  0
   35.7630   11.6170    4.3630 O   0  0  0  0  0  0  0  0  0  0  0  0
   33.6960   11.5950    5.3080 N   0  0  0  0  0  0  0  0  0  0  0  0
   33.0229   11.0029    6.9510 C   0  0  0  0  0  0  0  0  0  0  0  0
   31.5630    9.4800    8.9430 C   0  0  0  0  0  0  0  0  0  0  0  0
   32.6580    9.2460    8.1260 C   0  0  0  0  0  0  0  0  0  0  0  0
   33.3470   10.2740    7.4930 C   0  0  0  0  0  0  0  0  0  0  0  0
   32.8900   11.5720    7.6690 C   0  0  0  0  0  0  0  0  0  0  0  0
   33.3940   12.4720    6.7660 O   0  0  0  0  0  0  0  0  0  0  0  0
   32.5070   13.2300    6.0470 C   0  0  0  0  0  0  0  0  0  0  0  0
   32.8430   14.5690    6.5820 C   0  0  0  0  0  0  0  0  0  0  0  0
   32.2450   15.0040    7.5510 O   0  0  0  0  0  0  0  0  0  0  0  0
   33.9260   15.1770    6.0590 N   0  0  0  0  0  0  0  0  0  0  0  0
   34.5050   15.1130    4.7140 C   0  0  0  0  0  0  0  0  0  0  0  0
   35.9790   14.7950    4.8070 C   0  0  0  0  0  0  0  0  0  0  0  0
   36.6530   15.7410    5.6230 O   0  0  0  0  0  0  0  0  0  0  0  0
   36.2000   15.5640    6.9400 C   0  0  0  0  0  0  0  0  0  0  0  0
   34.7260   15.9040    7.0650 C   0  0  0  0  0  0  0  0  0  0  0  0
   31.8380   11.8440    8.5230 C   0  0  0  0  0  0  0  0  0  0  0  0
   34.0606    8.9926    4.9392 H   0  0  0  0  0  0  0  0  0  0  0  0
   35.0781    8.9170    4.7314 H   0  0  0  0  0  0  0  0  0  0  0  0
   35.4175    9.1823    3.7906 H   0  0  0  0  0  0  0  0  0  0  0  0
   32.8343   11.7711    4.7964 H   0  0  0  0  0  0  0  0  0  0  0  0
   31.7443    9.7258    9.9876 H   0  0  0  0  0  0  0  0  0  0  0  0
   32.9924    8.2056    7.9746 H   0  0  0  0  0  0  0  0  0  0  0  0
   34.2043   10.0302    6.8931 H   0  0  0  0  0  0  0  0  0  0  0  0
   31.5028   12.9964    6.3142 H   0  0  0  0  0  0  0  0  0  0  0  0
   32.7414   13.2095    5.0080 H   0  0  0  0  0  0  0  0  0  0  0  0
   33.9971   14.3692    4.1072 H   0  0  0  0  0  0  0  0  0  0  0  0
   34.3519   16.0971    4.2686 H   0  0  0  0  0  0  0  0  0  0  0  0
   36.1445   13.7873    5.2149 H   0  0  0  0  0  0  0  0  0  0  0  0
   36.4368   14.8229    3.8100 H   0  0  0  0  0  0  0  0  0  0  0  0
   36.3901   14.5262    7.2581 H   0  0  0  0  0  0  0  0  0  0  0  0
   36.7896   16.2162    7.6004 H   0  0  0  0  0  0  0  0  0  0  0  0
   34.3672   15.6781    8.0703 H   0  0  0  0  0  0  0  0  0  0  0  0
   34.5629   16.9678    6.8696 H   0  0  0  0  0  0  0  0  0  0  0  0
   30.9491   11.2122    8.4722 H   0  0  0  0  0  0  0  0  0  0  0  0
  1  2  1  0
  2  3  2  0
  2  4  1  0
  4  5  1  0
  5  6  4  0
  6  7  4  0
  7  8  4  0
  8  9  4  0
  9 10  1  0
 10 11  1  0
 11 12  1  0
 12 13  2  0
 12 14  1  0
 14 15  1  0
 15 16  1  0
 16 17  1  0
 17 18  1  0
 18 19  1  0
  9 20  4  0
 20  5  4  0
 19 14  1  0
  1 21  1  0
  1 22  1  0
  1 23  1  0
  4 24  1  0
  6 25  1  0
  7 26  1  0
  8 27  1  0
 11 28  1  0
 11 29  1  0
 15 30  1  0
 15 31  1  0
 16 32  1  0
 16 33  1  0
 18 34  1  0
 18 35  1  0
 19 36  1  0
 19 37  1  0
 20 38  1  0
M  END
$$$$
LIG
     RDKit          3D

 38 39  0  0  0  0  0  0  0  0999 V2000
   34.4770    9.6170    4.1420 C   0  0  0  0  0  0  0  0  0  0  0  0
   34.7220   11.0190    4.6240 C   0  0  0  0  0  0  0  0  0  0  0  0
   35.7630   11.6170    4.3630 O   0  0  0  0  0  0  0  0  0  0  0  0
   33.6960   11.5950    5.3080 N   0  0  0  0  0  0  0  0  0  0  0  0
   33.0477   10.6408    6.9232 C   0  0  0  0  0  0  0  0  0  0  0  0
   31.5630    9.4800    8.9430 C   0  0  0  0  0  0  0  0  0  0  0  0
   32.6580    9.2460    8.1260 C   0  0  0  0  0  0  0  0  0  0  0  0
   33.3470   10.2740    7.4930 C   0  0  0  0  0  0  0  0  0  0  0  0
   32.8900   11.5720    7.6690 C   0  0  0  0  0  0  0  0  0  0  0  0
   33.3940   12.4720    6.7660 O   0  0  0  0  0  0  0  0  0  0  0  0
   32.5070   13.2300    6.0470 C   0  0  0  0  0  0  0  0  0  0  0  0
   32.8430   14.5690    6.5820 C   0  0  0  0  0  0  0  0  0  0  0  0
   32.2450   15.0040    7.5510 O   0  0  0  0  0  0  0  0  0  0  0  0
   33.9260   15.1770    6.0590 N   0  0  0  0  0  0  0  0  0  0  0  0
   34.7260   15.9040    7.0650 C   0  0  0  0  0  0  0  0  0  0  0  0
   36.2000   15.5640    6.9400 C   0  0  0  0  0  0  0  0  0  0  0  0
   36.6530   15.7410    5.6230 O   0  0  0  0  0  0  0  0  0  0  0  0
   35.9790   14.7950    4.8070 C   0  0  0  0  0  0  0  0  0  0  0  0
   34.5050   15.1130    4.7140 C   0  0  0  0  0  0  0  0  0  0  0  0
   31.8380   11.8440    8.5230 C   0  0  0  0  0  0  0  0  0  0  0  0
   34.4145    8.9378    4.9975 H   0  0  0  0  0  0  0  0  0  0  0  0
   35.2989    8.9689    4.4591 H   0  0  0  0  0  0  0  0  0  0  0  0
   35.2984    9.2863    3.4988 H   0  0  0  0  0  0  0  0  0  0  0  0
   33.3399   11.0948    6.1198 H   0  0  0  0  0  0  0  0  0  0  0  0
   31.2496   10.5099    9.1135 H   0  0  0  0  0  0  0  0  0  0  0  0
   33.0038    8.2058    7.9649 H   0  0  0  0  0  0  0  0  0  0  0  0
   34.2165   10.0727    6.8850 H   0  0  0  0  0  0  0  0  0  0  0  0
   31.4912   13.0022    6.2168 H   0  0  0  0  0  0  0  0  0  0  0  0
   32.7965   13.1886    5.0261 H   0  0  0  0  0  0  0  0  0  0  0  0
   34.5553   16.9725    6.8749 H   0  0  0  0  0  0  0  0  0  0  0  0
   34.3602   15.6757    8.0717 H   0  0  0  0  0  0  0  0  0  0  0  0
   36.7900   16.2010    7.5972 H   0  0  0  0  0  0  0  0  0  0  0  0
   36.3723   14.5236    7.2219 H   0  0  0  0  0  0  0  0  0  0  0  0
   36.1343   13.8077    5.2399 H   0  0  0  0  0  0  0  0  0  0  0  0
   36.4451   14.8105    3.8187 H   0  0  0  0  0  0  0  0  0  0  0  0
   33.9663   14.3204    4.1827 H   0  0  0  0  0  0  0  0  0  0  0  0
   34.3501   16.0554    4.1903 H   0  0  0  0  0  0  0  0  0  0  0  0
   31.1761   11.0298    8.8144 H   0  0  0  0  0  0  0  0  0  0  0  0
  1  2  1  0
  2  3  2  0
  2  4  1  0
  4  5  1  0
  5  6  4  0
  6  7  4  0
  7  8  4  0
  8  9  4  0
  9 10  1  0
 10 11  1  0
 11 12  1  0
 12 13  2  0
 12 14  1  0
 14 15  1  0
 15 16  1  0
 16 17  1  0
 17 18  1  0
 18 19  1  0
  9 20  4  0
 20  5  4  0
 19 14  1  0
  1 21  1  0
  1 22  1  0
  1 23  1  0
  4 24  1  0
  6 25  1  0
  7 26  1  0
  8 27  1  0
 11 28  1  0
 11 29  1  0
 15 30  1  0
 15 31  1  0
 16 32  1  0
 16 33  1  0
 18 34  1  0
 18 35  1  0
 19 36  1  0
 19 37  1  0
 20 38  1  0
M  END
$$$$
LIG
     RDKit          3D

 38 39  0  0  0  0  0  0  0  0999 V2000
   34.4770    9.6170    4.1420 C   0  0  0  0  0  0  0  0  0  0  0  0
   34.7220   11.0190    4.6240 C   0  0  0  0  0  0  0  0  0  0  0  0
   35.7630   11.6170    4.3630 O   0  0  0  0  0  0  0  0  0  0  0  0
   33.6960   11.5950    5.3080 N   0  0  0  0  0  0  0  0  0  0  0  0
   33.0518   10.6404    6.9245 C   0  0  0  0  0  0  0  0  0  0  0  0
   31.5630    9.4800    8.9430 C   0  0  0  0  0  0  0  0  0  0  0  0
   32.6580    9.2460    8.1260 C   0  0  0  0  0  0  0  0  0  0  0  0
   33.3470   10.2740    7.4930 C   0  0  0  0  0  0  0  0  0  0  0  0
   32.8900   11.5720    7.6690 C   0  0  0  0  0  0  0  0  0  0  0  0
   33.3940   12.4720    6.7660 O   0  0  0  0  0  0  0  0  0  0  0  0
   32.5070   13.2300    6.0470 C   0  0  0  0  0  0  0  0  0  0  0  0
   32.8430   14.5690    6.5820 C   0  0  0  0  0  0  0  0  0  0  0  0
   32.2450   15.0040    7.5510 O   0  0  0  0  0  0  0  0  0  0  0  0
   33.9260   15.1770    6.0590 N   0  0  0  0  0  0  0  0  0  0  0  0
   34.5050   15.1130    4.7140 C   0  0  0  0  0  0  0  0  0  0  0  0
   35.9790   14.7950    4.8070 C   0  0  0  0  0  0  0  0  0  0  0  0
   36.6530   15.7410    5.6230 O   0  0  0  0  0  0  0  0  0  0  0  0
   36.2000   15.5640    6.9400 C   0  0  0  0  0  0  0  0  0  0  0  0
   34.7260   15.9040    7.0650 C   0  0  0  0  0  0  0  0  0  0  0  0
   31.8380   11.8440    8.5230 C   0  0  0  0  0  0  0  0  0  0  0  0
   33.5638    9.5953    3.5395 H   0  0  0  0  0  0  0  0  0  0  0  0
   33.5111    9.2703    4.5229 H   0  0  0  0  0  0  0  0  0  0  0  0
   34.3740    8.9098    4.9712 H   0  0  0  0  0  0  0  0  0  0  0  0
   33.2739   11.0579    6.0617 H   0  0  0  0  0  0  0  0  0  0  0  0
   30.6383    8.9383    8.7449 H   0  0  0  0  0  0  0  0  0  0  0  0
   33.0064    8.2066    7.9703 H   0  0  0  0  0  0  0  0  0  0  0  0
   34.2214   10.0751    6.8929 H   0  0  0  0  0  0  0  0  0  0  0  0
   31.4968   12.9994    6.2143 H   0  0  0  0  0  0  0  0  0  0  0  0
   32.8020   13.1952    5.0310 H   0  0  0  0  0  0  0  0  0  0  0  0
   34.3522   16.0971    4.2687 H   0  0  0  0  0  0  0  0  0  0  0  0
   33.9990   14.3663    4.1090 H   0  0  0  0  0  0  0  0  0  0  0  0
   36.4380   14.8233    3.8103 H   0  0  0  0  0  0  0  0  0  0  0  0
   36.1438   13.7873    5.2159 H   0  0  0  0  0  0  0  0  0  0  0  0
   36.3900   14.5259    7.2582 H   0  0  0  0  0  0  0  0  0  0  0  0
   36.7904   16.2168    7.6012 H   0  0  0  0  0  0  0  0  0  0  0  0
   34.3682   15.6798    8.0713 H   0  0  0  0  0  0  0  0  0  0  0  0
   34.5631   16.9679    6.8694 H   0  0  0  0  0  0  0  0  0  0  0  0
   31.4497   12.8593    8.5677 H   0  0  0  0  0  0  0  0  0  0  0  0
  1  2  1  0
  2  3  2  0
  2  4  1  0
  4  5  1  0
  5  6  4  0
  6  7  4  0
  7  8  4  0
  8  9  4  0
  9 10  1  0
 10 11  1  0
 11 12  1  0
 12 13  2  0
 12 14  1  0
 14 15  1  0
 15 16  1  0
 16 17  1  0
 17 18  1  0
 18 19  1  0
  9 20  4  0
 20  5  4  0
 19 14  1  0
  1 21  1  0
  1 22  1  0
  1 23  1  0
  4 24  1  0
  6 25  1  0
  7 26  1  0
  8 27  1  0
 11 28  1  0
 11 29  1  0
 15 30  1  0
 15 31  1  0
 16 32  1  0
 16 33  1  0
 18 34  1  0
 18 35  1  0
 19 36  1  0
 19 37  1  0
 20 38  1  0
M  END
$$$$
LIG
     RDKit          3D

 38 39  0  0  0  0  0  0  0  0999 V2000
   34.4770    9.6170    4.1420 C   0  0  0  0  0  0  0  0  0  0  0  0
   34.7220   11.0190    4.6240 C   0  0  0  0  0  0  0  0  0  0  0  0
   35.7630   11.6170    4.3630 O   0  0  0  0  0  0  0  0  0  0  0  0
   33.6960   11.5950    5.3080 N   0  0  0  0  0  0  0  0  0  0  0  0
   33.1329   10.8842    6.9545 C   0  0  0  0  0  0  0  0  0  0  0  0
   31.5630    9.4800    8.9430 C   0  0  0  0  0  0  0  0  0  0  0  0
   31.1650   10.7950    9.1290 C   0  0  0  0  0  0  0  0  0  0  0  0
   31.8380   11.8440    8.5230 C   0  0  0  0  0  0  0  0  0  0  0  0
   32.8900   11.5720    7.6690 C   0  0  0  0  0  0  0  0  0  0  0  0
   33.3940   12.4720    6.7660 O   0  0  0  0  0  0  0  0  0  0  0  0
   32.5070   13.2300    6.0470 C   0  0  0  0  0  0  0  0  0  0  0  0
   32.8430   14.5690    6.5820 C   0  0  0  0  0  0  0  0  0  0  0  0
   32.2450   15.0040    7.5510 O   0  0  0  0  0  0  0  0  0  0  0  0
   33.9260   15.1770    6.0590 N   0  0  0  0  0  0  0  0  0  0  0  0
   34.7260   15.9040    7.0650 C   0  0  0  0  0  0  0  0  0  0  0  0
   36.2000   15.5640    6.9400 C   0  0  0  0  0  0  0  0  0  0  0  0
   36.6530   15.7410    5.6230 O   0  0  0  0  0  0  0  0  0  0  0  0
   35.9790   14.7950    4.8070 C   0  0  0  0  0  0  0  0  0  0  0  0
   34.5050   15.1130    4.7140 C   0  0  0  0  0  0  0  0  0  0  0  0
   33.3470   10.2740    7.4930 C   0  0  0  0  0  0  0  0  0  0  0  0
   33.4254    9.5061    3.8613 H   0  0  0  0  0  0  0  0  0  0  0  0
   34.7141    8.9082    4.9421 H   0  0  0  0  0  0  0  0  0  0  0  0
   33.7130    9.1191    4.7480 H   0  0  0  0  0  0  0  0  0  0  0  0
   33.1541   10.9971    5.9278 H   0  0  0  0  0  0  0  0  0  0  0  0
   31.5054    8.8009    9.7914 H   0  0  0  0  0  0  0  0  0  0  0  0
   30.2997   11.0040    9.7694 H   0  0  0  0  0  0  0  0  0  0  0  0
   31.5128   12.8557    8.7423 H   0  0  0  0  0  0  0  0  0  0  0  0
   31.5020   12.9928    6.3078 H   0  0  0  0  0  0  0  0  0  0  0  0
   32.7431   13.2129    5.0081 H   0  0  0  0  0  0  0  0  0  0  0  0
   34.5666   16.9835    6.9649 H   0  0  0  0  0  0  0  0  0  0  0  0
   34.3379   15.5931    8.0435 H   0  0  0  0  0  0  0  0  0  0  0  0
   36.7893   16.2090    7.5907 H   0  0  0  0  0  0  0  0  0  0  0  0
   36.3765   14.5307    7.2296 H   0  0  0  0  0  0  0  0  0  0  0  0
   36.4403   14.8157    3.8212 H   0  0  0  0  0  0  0  0  0  0  0  0
   36.1371   13.8055    5.2369 H   0  0  0  0  0  0  0  0  0  0  0  0
   33.9827   14.3646    4.1193 H   0  0  0  0  0  0  0  0  0  0  0  0
   34.3492   16.0970    4.2651 H   0  0  0  0  0  0  0  0  0  0  0  0
   32.8300    9.6352    6.7762 H   0  0  0  0  0  0  0  0  0  0  0  0
  1  2  1  0
  2  3  2  0
  2  4  1  0
  4  5  1  0
  5  6  4  0
  6  7  4  0
  7  8  4  0
  8  9  4  0
  9 10  1  0
 10 11  1  0
 11 12  1  0
 12 13  2  0
 12 14  1  0
 14 15  1  0
 15 16  1  0
 16 17  1  0
 17 18  1  0
 18 19  1  0
  9 20  4  0
 20  5  4  0
 19 14  1  0
  1 21  1  0
  1 22  1  0
  1 23  1  0
  4 24  1  0
  6 25  1  0
  7 26  1  0
  8 27  1  0
 11 28  1  0
 11 29  1  0
 15 30  1  0
 15 31  1  0
 16 32  1  0
 16 33  1  0
 18 34  1  0
 18 35  1  0
 19 36  1  0
 19 37  1  0
 20 38  1  0
M  END
$$$$
LIG
     RDKit          3D

 38 39  0  0  0  0  0  0  0  0999 V2000
   34.4770    9.6170    4.1420 C   0  0  0  0  0  0  0  0  0  0  0  0
   34.7220   11.0190    4.6240 C   0  0  0  0  0  0  0  0  0  0  0  0
   35.7630   11.6170    4.3630 O   0  0  0  0  0  0  0  0  0  0  0  0
   33.6960   11.5950    5.3080 N   0  0  0  0  0  0  0  0  0  0  0  0
   32.8558   10.6657    6.8686 C   0  0  0  0  0  0  0  0  0  0  0  0
   31.5630    9.4800    8.9430 C   0  0  0  0  0  0  0  0  0  0  0  0
   31.1650   10.7950    9.1290 C   0  0  0  0  0  0  0  0  0  0  0  0
   31.8380   11.8440    8.5230 C   0  0  0  0  0  0  0  0  0  0  0  0
   32.8900   11.5720    7.6690 C   0  0  0  0  0  0  0  0  0  0  0  0
   33.3940   12.4720    6.7660 O   0  0  0  0  0  0  0  0  0  0  0  0
   32.5070   13.2300    6.0470 C   0  0  0  0  0  0  0  0  0  0  0  0
   32.8430   14.5690    6.5820 C   0  0  0  0  0  0  0  0  0  0  0  0
   32.2450   15.0040    7.5510 O   0  0  0  0  0  0  0  0  0  0  0  0
   33.9260   15.1770    6.0590 N   0  0  0  0  0  0  0  0  0  0  0  0
   34.5050   15.1130    4.7140 C   0  0  0  0  0  0  0  0  0  0  0  0
   35.9790   14.7950    4.8070 C   0  0  0  0  0  0  0  0  0  0  0  0
   36.6530   15.7410    5.6230 O   0  0  0  0  0  0  0  0  0  0  0  0
   36.2000   15.5640    6.9400 C   0  0  0  0  0  0  0  0  0  0  0  0
   34.7260   15.9040    7.0650 C   0  0  0  0  0  0  0  0  0  0  0  0
   33.3470   10.2740    7.4930 C   0  0  0  0  0  0  0  0  0  0  0  0
   35.2448    8.9413    4.5326 H   0  0  0  0  0  0  0  0  0  0  0  0
   35.3319    9.2758    3.5494 H   0  0  0  0  0  0  0  0  0  0  0  0
   34.4860    9.5941    3.0478 H   0  0  0  0  0  0  0  0  0  0  0  0
   32.8925   11.0096    5.5231 H   0  0  0  0  0  0  0  0  0  0  0  0
   32.6142    9.2762    8.7419 H   0  0  0  0  0  0  0  0  0  0  0  0
   30.2989   11.0166    9.7695 H   0  0  0  0  0  0  0  0  0  0  0  0
   31.5509   12.8752    8.7231 H   0  0  0  0  0  0  0  0  0  0  0  0
   31.5295   12.9716    6.3636 H   0  0  0  0  0  0  0  0  0  0  0  0
   32.6429   13.2058    5.0036 H   0  0  0  0  0  0  0  0  0  0  0  0
   33.9838   14.3686    4.1083 H   0  0  0  0  0  0  0  0  0  0  0  0
   34.3480   16.0985    4.2642 H   0  0  0  0  0  0  0  0  0  0  0  0
   36.4399   14.8100    3.8236 H   0  0  0  0  0  0  0  0  0  0  0  0
   36.1308   13.8118    5.2476 H   0  0  0  0  0  0  0  0  0  0  0  0
   36.3737   14.5267    7.2263 H   0  0  0  0  0  0  0  0  0  0  0  0
   36.7950   16.2000    7.5988 H   0  0  0  0  0  0  0  0  0  0  0  0
   34.3392   15.5935    8.0426 H   0  0  0  0  0  0  0  0  0  0  0  0
   34.5683   16.9798    6.9549 H   0  0  0  0  0  0  0  0  0  0  0  0
   32.9142    9.4830    8.0985 H   0  0  0  0  0  0  0  0  0  0  0  0
  1  2  1  0
  2  3  2  0
  2  4  1  0
  4  5  1  0
  5  6  4  0
  6  7  4  0
  7  8  4  0
  8  9  4  0
  9 10  1  0
 10 11  1  0
 11 12  1  0
 12 13  2  0
 12 14  1  0
 14 15  1  0
 15 16  1  0
 16 17  1  0
 17 18  1  0
 18 19  1  0
  9 20  4  0
 20  5  4  0
 19 14  1  0
  1 21  1  0
  1 22  1  0
  1 23  1  0
  4 24  1  0
  6 25  1  0
  7 26  1  0
  8 27  1  0
 11 28  1  0
 11 29  1  0
 15 30  1  0
 15 31  1  0
 16 32  1  0
 16 33  1  0
 18 34  1  0
 18 35  1  0
 19 36  1  0
 19 37  1  0
 20 38  1  0
M  END
$$$$
