LIG
     RDKit          3D

 42 44  0  0  0  0  0  0  0  0999 V2000
   27.7430   15.7811    8.9612 C   0  0  0  0  0  0  0  0  0  0  0  0
   28.6878   15.0049    8.2519 N   0  0  0  0  0  0  0  0  0  0  0  0
   28.2447   13.9426    7.3927 C   0  0  0  0  0  0  0  0  0  0  0  0
   28.7330   12.7289    8.1259 C   0  0  0  0  0  0  0  0  0  0  0  0
   30.1027   13.1813    8.6031 C   0  0  0  0  0  0  0  0  0  0  0  0
   31.0136   13.2217    7.5541 O   0  0  0  0  0  0  0  0  0  0  0  0
   31.5490   12.0479    7.1531 C   0  0  0  0  0  0  0  0  0  0  0  0
   31.3356   10.7506    7.5857 C   0  0  0  0  0  0  0  0  0  0  0  0
   32.0342    9.7112    6.9585 C   0  0  0  0  0  0  0  0  0  0  0  0
   32.9544    9.9813    5.9290 C   0  0  0  0  0  0  0  0  0  0  0  0
   33.1607   11.2961    5.5200 C   0  0  0  0  0  0  0  0  0  0  0  0
   34.0240   11.6539    4.4750 N   0  0  0  0  0  0  0  0  0  0  0  0
   34.4225   12.9673    4.2291 C   0  0  0  0  0  0  0  0  0  0  0  0
   34.3115   13.9191    5.0021 O   0  0  0  0  0  0  0  0  0  0  0  0
   34.9811   13.1906    2.8315 C   0  0  0  0  0  0  0  0  0  0  0  0
   34.1777   14.2845    2.1379 C   0  0  0  0  0  0  0  0  0  0  0  0
   34.3596   13.9361    0.6874 C   0  0  0  0  0  0  0  0  0  0  0  0
   34.3560   12.4253    0.7266 C   0  0  0  0  0  0  0  0  0  0  0  0
   34.8987   12.0293    1.9943 O   0  0  0  0  0  0  0  0  0  0  0  0
   32.4233   12.2928    6.1254 C   0  0  0  0  0  0  0  0  0  0  0  0
   29.8322   14.6206    8.9698 C   0  0  0  0  0  0  0  0  0  0  0  0
   30.4446   15.3057    9.7775 O   0  0  0  0  0  0  0  0  0  0  0  0
   27.7151   15.4487    9.9998 H   0  0  0  0  0  0  0  0  0  0  0  0
   28.0524   16.8148    8.8478 H   0  0  0  0  0  0  0  0  0  0  0  0
   26.7524   15.6329    8.5438 H   0  0  0  0  0  0  0  0  0  0  0  0
   27.1655   13.9404    7.2371 H   0  0  0  0  0  0  0  0  0  0  0  0
   28.7385   14.0610    6.4214 H   0  0  0  0  0  0  0  0  0  0  0  0
   28.7304   11.8503    7.4792 H   0  0  0  0  0  0  0  0  0  0  0  0
   28.0905   12.5677    8.9929 H   0  0  0  0  0  0  0  0  0  0  0  0
   30.5080   12.6647    9.4551 H   0  0  0  0  0  0  0  0  0  0  0  0
   30.6430   10.5074    8.3844 H   0  0  0  0  0  0  0  0  0  0  0  0
   31.8762    8.6828    7.2816 H   0  0  0  0  0  0  0  0  0  0  0  0
   33.5055    9.1610    5.4746 H   0  0  0  0  0  0  0  0  0  0  0  0
   34.4304   10.9382    3.8804 H   0  0  0  0  0  0  0  0  0  0  0  0
   36.0391   13.4621    2.9190 H   0  0  0  0  0  0  0  0  0  0  0  0
   34.5309   15.2895    2.3879 H   0  0  0  0  0  0  0  0  0  0  0  0
   33.1147   14.2275    2.4048 H   0  0  0  0  0  0  0  0  0  0  0  0
   33.5879   14.3496    0.0330 H   0  0  0  0  0  0  0  0  0  0  0  0
   35.3342   14.2978    0.3388 H   0  0  0  0  0  0  0  0  0  0  0  0
   34.9463   11.9827   -0.0805 H   0  0  0  0  0  0  0  0  0  0  0  0
   33.3355   12.0316    0.6663 H   0  0  0  0  0  0  0  0  0  0  0  0
   32.4788   13.3255    5.8005 H   0  0  0  0  0  0  0  0  0  0  0  0
  1  2  1  0
  2  3  1  0
  3  4  1  0
  4  5  1  0
  5  6  1  0
  6  7  1  0
  7  8  2  0
  8  9  1  0
  9 10  2  0
 10 11  1  0
 11 12  1  0
 12 13  1  0
 13 14  2  0
 13 15  1  0
 15 16  1  0
 16 17  1  0
 17 18  1  0
 18 19  1  0
 11 20  2  0
  5 21  1  0
 21 22  2  0
 21  2  1  0
 20  7  1  0
 19 15  1  0
  1 23  1  0
  1 24  1  0
  1 25  1  0
  3 26  1  0
  3 27  1  0
  4 28  1  0
  4 29  1  0
  5 30  1  0
  8 31  1  0
  9 32  1  0
 10 33  1  0
 12 34  1  0
 15 35  1  0
 16 36  1  0
 16 37  1  0
 17 38  1  0
 17 39  1  0
 18 40  1  0
 18 41  1  0
 20 42  1  0
M  END
