LIG
     RDKit          3D

 38 39  0  0  0  0  0  0  0  0999 V2000
    4.9376   -0.3437   -2.5358 C   0  0  0  0  0  0  0  0  0  0  0  0
    3.7806   -0.1428   -1.5886 C   0  0  0  0  0  0  0  0  0  0  0  0
    2.6509   -0.5105   -1.8930 O   0  0  0  0  0  0  0  0  0  0  0  0
    4.1738    0.4496   -0.4014 N   0  0  0  0  0  0  0  0  0  0  0  0
    3.3634    0.7797    0.7066 C   0  0  0  0  0  0  0  0  0  0  0  0
    3.9967    1.3702    1.8072 C   0  0  0  0  0  0  0  0  0  0  0  0
    3.2639    1.7263    2.9399 C   0  0  0  0  0  0  0  0  0  0  0  0
    1.8912    1.4934    2.9784 C   0  0  0  0  0  0  0  0  0  0  0  0
    1.2441    0.9058    1.8910 C   0  0  0  0  0  0  0  0  0  0  0  0
   -0.1037    0.7323    2.0559 O   0  0  0  0  0  0  0  0  0  0  0  0
   -0.8086    0.1172    0.9843 C   0  0  0  0  0  0  0  0  0  0  0  0
   -2.3027   -0.0366    1.3016 C   0  0  0  0  0  0  0  0  0  0  0  0
   -2.7682    0.2185    2.4133 O   0  0  0  0  0  0  0  0  0  0  0  0
   -3.1123   -0.4828    0.2615 N   0  0  0  0  0  0  0  0  0  0  0  0
   -4.5576   -0.5899    0.4704 C   0  0  0  0  0  0  0  0  0  0  0  0
   -5.3180   -0.3180   -0.8308 C   0  0  0  0  0  0  0  0  0  0  0  0
   -4.9530   -1.1877   -1.9131 O   0  0  0  0  0  0  0  0  0  0  0  0
   -3.6398   -1.7499   -1.7973 C   0  0  0  0  0  0  0  0  0  0  0  0
   -2.6434   -0.8305   -1.0838 C   0  0  0  0  0  0  0  0  0  0  0  0
    1.9842    0.5518    0.7579 C   0  0  0  0  0  0  0  0  0  0  0  0
    5.4600   -1.2687   -2.2780 H   0  0  0  0  0  0  0  0  0  0  0  0
    4.5605   -0.4125   -3.5602 H   0  0  0  0  0  0  0  0  0  0  0  0
    5.6339    0.4985   -2.4874 H   0  0  0  0  0  0  0  0  0  0  0  0
    5.1577    0.6682   -0.3066 H   0  0  0  0  0  0  0  0  0  0  0  0
    5.0664    1.5619    1.8012 H   0  0  0  0  0  0  0  0  0  0  0  0
    3.7595    2.1841    3.7918 H   0  0  0  0  0  0  0  0  0  0  0  0
    1.3179    1.7696    3.8606 H   0  0  0  0  0  0  0  0  0  0  0  0
   -0.4102   -0.8900    0.8147 H   0  0  0  0  0  0  0  0  0  0  0  0
   -0.7217    0.7395    0.0862 H   0  0  0  0  0  0  0  0  0  0  0  0
   -4.8863    0.1006    1.2534 H   0  0  0  0  0  0  0  0  0  0  0  0
   -4.7487   -1.6132    0.8139 H   0  0  0  0  0  0  0  0  0  0  0  0
   -6.3954   -0.4251   -0.6708 H   0  0  0  0  0  0  0  0  0  0  0  0
   -5.1367    0.7102   -1.1649 H   0  0  0  0  0  0  0  0  0  0  0  0
   -3.7318   -2.7014   -1.2606 H   0  0  0  0  0  0  0  0  0  0  0  0
   -3.2876   -1.9776   -2.8082 H   0  0  0  0  0  0  0  0  0  0  0  0
   -1.6615   -1.3080   -1.0298 H   0  0  0  0  0  0  0  0  0  0  0  0
   -2.5417    0.1132   -1.6319 H   0  0  0  0  0  0  0  0  0  0  0  0
    1.4866    0.0982   -0.0880 H   0  0  0  0  0  0  0  0  0  0  0  0
  1  2  1  0
  2  3  2  0
  2  4  1  0
  4  5  1  0
  5  6  2  0
  6  7  1  0
  7  8  2  0
  8  9  1  0
  9 10  1  0
 10 11  1  0
 11 12  1  0
 12 13  2  0
 12 14  1  0
 14 15  1  0
 15 16  1  0
 16 17  1  0
 17 18  1  0
 18 19  1  0
  9 20  2  0
 20  5  1  0
 19 14  1  0
  1 21  1  0
  1 22  1  0
  1 23  1  0
  4 24  1  0
  6 25  1  0
  7 26  1  0
  8 27  1  0
 11 28  1  0
 11 29  1  0
 15 30  1  0
 15 31  1  0
 16 32  1  0
 16 33  1  0
 18 34  1  0
 18 35  1  0
 19 36  1  0
 19 37  1  0
 20 38  1  0
M  END
