LIG
     RDKit          3D

 27 27  0  0  0  0  0  0  0  0999 V2000
   -2.7334    1.7650    1.7978 C   0  0  0  0  0  0  0  0  0  0  0  0
   -2.6603    0.6288    0.8078 C   0  0  0  0  0  0  0  0  0  0  0  0
   -3.6803    0.0854    0.3991 O   0  0  0  0  0  0  0  0  0  0  0  0
   -1.3568    0.3329    0.4619 N   0  0  0  0  0  0  0  0  0  0  0  0
   -0.8651   -0.6523   -0.4201 C   0  0  0  0  0  0  0  0  0  0  0  0
   -1.7501   -1.5245   -1.0831 C   0  0  0  0  0  0  0  0  0  0  0  0
   -1.2972   -2.5149   -1.9607 C   0  0  0  0  0  0  0  0  0  0  0  0
    0.0594   -2.6557   -2.1958 C   0  0  0  0  0  0  0  0  0  0  0  0
    0.9430   -1.8024   -1.5487 C   0  0  0  0  0  0  0  0  0  0  0  0
    2.2575   -1.9498   -1.7904 F   0  0  0  0  0  0  0  0  0  0  0  0
    0.5213   -0.7927   -0.6576 C   0  0  0  0  0  0  0  0  0  0  0  0
    1.5986   -0.0407   -0.1161 N   0  0  0  0  0  0  0  0  0  0  0  0
    1.6462    1.0192    0.7595 C   0  0  0  0  0  0  0  0  0  0  0  0
    0.6928    1.5647    1.3052 O   0  0  0  0  0  0  0  0  0  0  0  0
    3.0860    1.4699    1.0320 C   0  0  0  0  0  0  0  0  0  0  0  0
    3.9777    1.1141   -0.0182 O   0  0  0  0  0  0  0  0  0  0  0  0
   -2.3446    2.6795    1.3415 H   0  0  0  0  0  0  0  0  0  0  0  0
   -2.1548    1.5196    2.6928 H   0  0  0  0  0  0  0  0  0  0  0  0
   -3.7742    1.9313    2.0902 H   0  0  0  0  0  0  0  0  0  0  0  0
   -0.6489    0.9152    0.9061 H   0  0  0  0  0  0  0  0  0  0  0  0
   -2.8246   -1.4617   -0.9350 H   0  0  0  0  0  0  0  0  0  0  0  0
   -2.0130   -3.1691   -2.4527 H   0  0  0  0  0  0  0  0  0  0  0  0
    0.4351   -3.4163   -2.8720 H   0  0  0  0  0  0  0  0  0  0  0  0
    2.5214   -0.3405   -0.4403 H   0  0  0  0  0  0  0  0  0  0  0  0
    3.4275    0.9904    1.9538 H   0  0  0  0  0  0  0  0  0  0  0  0
    3.1087    2.5564    1.1591 H   0  0  0  0  0  0  0  0  0  0  0  0
    3.8283    1.7482   -0.7435 H   0  0  0  0  0  0  0  0  0  0  0  0
  1  2  1  0
  2  3  2  0
  2  4  1  0
  4  5  1  0
  5  6  2  0
  6  7  1  0
  7  8  2  0
  8  9  1  0
  9 10  1  0
  9 11  2  0
 11 12  1  0
 12 13  1  0
 13 14  2  0
 13 15  1  0
 15 16  1  0
 11  5  1  0
  1 17  1  0
  1 18  1  0
  1 19  1  0
  4 20  1  0
  6 21  1  0
  7 22  1  0
  8 23  1  0
 12 24  1  0
 15 25  1  0
 15 26  1  0
 16 27  1  0
M  END
