LIG
     RDKit          3D

 27 27  0  0  0  0  0  0  0  0999 V2000
   28.5340   14.0390    8.5970 C   0  0  0  0  0  0  0  0  0  0  0  0
   29.3000   13.3530    7.8990 C   0  0  0  0  0  0  0  0  0  0  0  0
   29.3990   13.5140    6.5850 O   0  0  0  0  0  0  0  0  0  0  0  0
   31.1650   13.3330    8.0150 N   0  0  0  0  0  0  0  0  0  0  0  0
   31.5450   11.9340    7.6020 C   0  0  0  0  0  0  0  0  0  0  0  0
   30.7220   10.8640    7.9390 C   0  0  0  0  0  0  0  0  0  0  0  0
   31.0170    9.5590    7.5720 C   0  0  0  0  0  0  0  0  0  0  0  0
   32.1560    9.3390    6.8090 C   0  0  0  0  0  0  0  0  0  0  0  0
   33.0110   10.3720    6.4380 C   0  0  0  0  0  0  0  0  0  0  0  0
   34.1980   10.0910    5.5530 F   0  0  0  0  0  0  0  0  0  0  0  0
   32.7080   11.6650    6.8730 C   0  0  0  0  0  0  0  0  0  0  0  0
   33.6520   12.7090    6.6590 N   0  0  0  0  0  0  0  0  0  0  0  0
   34.4250   13.2280    7.6390 C   0  0  0  0  0  0  0  0  0  0  0  0
   34.9120   12.5690    8.5560 O   0  0  0  0  0  0  0  0  0  0  0  0
   34.6680   14.7180    7.5670 C   0  0  0  0  0  0  0  0  0  0  0  0
   35.0470   15.1300    6.2680 O   0  0  0  0  0  0  0  0  0  0  0  0
   28.8144   14.1459    9.7030 H   0  0  0  0  0  0  0  0  0  0  0  0
   28.9980   14.9634    9.0889 H   0  0  0  0  0  0  0  0  0  0  0  0
   28.0589   13.5081    9.4939 H   0  0  0  0  0  0  0  0  0  0  0  0
   31.4485   13.9884    8.2323 H   0  0  0  0  0  0  0  0  0  0  0  0
   29.8036   11.0090    8.5123 H   0  0  0  0  0  0  0  0  0  0  0  0
   30.3836    8.7416    7.8700 H   0  0  0  0  0  0  0  0  0  0  0  0
   32.3986    8.3091    6.4811 H   0  0  0  0  0  0  0  0  0  0  0  0
   33.7163   13.0373    5.7580 H   0  0  0  0  0  0  0  0  0  0  0  0
   33.7612   15.2661    7.8426 H   0  0  0  0  0  0  0  0  0  0  0  0
   35.4728   14.9831    8.2605 H   0  0  0  0  0  0  0  0  0  0  0  0
   35.4902   14.3633    5.8528 H   0  0  0  0  0  0  0  0  0  0  0  0
  1  2  1  0
  2  3  2  0
  2  4  1  0
  4  5  1  0
  5  6  4  0
  6  7  4  0
  7  8  4  0
  8  9  4  0
  9 10  1  0
  9 11  4  0
 11 12  1  0
 12 13  1  0
 13 14  2  0
 13 15  1  0
 15 16  1  0
 11  5  4  0
  1 17  1  0
  1 18  1  0
  1 19  1  0
  4 20  1  0
  6 21  1  0
  7 22  1  0
  8 23  1  0
 12 24  1  0
 15 25  1  0
 15 26  1  0
 16 27  1  0
M  END
