LIG
     RDKit          3D

 38 39  0  0  0  0  0  0  0  0999 V2000
   35.1177    8.6073    3.9201 C   0  0  0  0  0  0  0  0  0  0  0  0
   34.5176    9.6758    4.7866 C   0  0  0  0  0  0  0  0  0  0  0  0
   34.7909   10.8541    4.5783 O   0  0  0  0  0  0  0  0  0  0  0  0
   33.6464    9.1299    5.7295 N   0  0  0  0  0  0  0  0  0  0  0  0
   32.8190    9.8256    6.6339 C   0  0  0  0  0  0  0  0  0  0  0  0
   32.9667   11.1754    6.7805 C   0  0  0  0  0  0  0  0  0  0  0  0
   32.0194   11.8986    7.4896 C   0  0  0  0  0  0  0  0  0  0  0  0
   32.0465   13.2475    7.3353 O   0  0  0  0  0  0  0  0  0  0  0  0
   31.7049   13.4651    5.9856 C   0  0  0  0  0  0  0  0  0  0  0  0
   32.6279   14.2669    5.0942 C   0  0  0  0  0  0  0  0  0  0  0  0
   32.0702   14.8623    4.1645 O   0  0  0  0  0  0  0  0  0  0  0  0
   34.0001   14.2483    5.2375 N   0  0  0  0  0  0  0  0  0  0  0  0
   34.6868   14.4267    6.5275 C   0  0  0  0  0  0  0  0  0  0  0  0
   36.1151   13.8977    6.4572 C   0  0  0  0  0  0  0  0  0  0  0  0
   36.8553   14.5857    5.4374 O   0  0  0  0  0  0  0  0  0  0  0  0
   36.2519   14.3348    4.1608 C   0  0  0  0  0  0  0  0  0  0  0  0
   34.7802   14.7575    4.1070 C   0  0  0  0  0  0  0  0  0  0  0  0
   30.9785   11.3028    8.1764 C   0  0  0  0  0  0  0  0  0  0  0  0
   30.9177    9.9224    8.1842 C   0  0  0  0  0  0  0  0  0  0  0  0
   31.8349    9.1990    7.4222 C   0  0  0  0  0  0  0  0  0  0  0  0
   31.7674    7.8707    7.5030 F   0  0  0  0  0  0  0  0  0  0  0  0
   35.8608    9.0500    3.2503 H   0  0  0  0  0  0  0  0  0  0  0  0
   35.6186    7.8563    4.5367 H   0  0  0  0  0  0  0  0  0  0  0  0
   34.3376    8.1349    3.3172 H   0  0  0  0  0  0  0  0  0  0  0  0
   33.5741    8.1085    5.7632 H   0  0  0  0  0  0  0  0  0  0  0  0
   33.7677   11.7165    6.2959 H   0  0  0  0  0  0  0  0  0  0  0  0
   31.5196   12.5546    5.4029 H   0  0  0  0  0  0  0  0  0  0  0  0
   30.7166   13.9393    5.9868 H   0  0  0  0  0  0  0  0  0  0  0  0
   34.7100   15.5008    6.7306 H   0  0  0  0  0  0  0  0  0  0  0  0
   34.1601   13.9471    7.3468 H   0  0  0  0  0  0  0  0  0  0  0  0
   36.1312   12.8255    6.2352 H   0  0  0  0  0  0  0  0  0  0  0  0
   36.6165   14.0394    7.4174 H   0  0  0  0  0  0  0  0  0  0  0  0
   36.8241   14.8833    3.4058 H   0  0  0  0  0  0  0  0  0  0  0  0
   36.3525   13.2667    3.9331 H   0  0  0  0  0  0  0  0  0  0  0  0
   34.6993   15.8440    4.1036 H   0  0  0  0  0  0  0  0  0  0  0  0
   34.3347   14.4039    3.1696 H   0  0  0  0  0  0  0  0  0  0  0  0
   30.2319   11.8976    8.6951 H   0  0  0  0  0  0  0  0  0  0  0  0
   30.1594    9.3950    8.7550 H   0  0  0  0  0  0  0  0  0  0  0  0
  1  2  1  0
  2  3  2  0
  2  4  1  0
  4  5  1  0
  5  6  2  0
  6  7  1  0
  7  8  1  0
  8  9  1  0
  9 10  1  0
 10 11  2  0
 10 12  1  0
 12 13  1  0
 13 14  1  0
 14 15  1  0
 15 16  1  0
 16 17  1  0
  7 18  2  0
 18 19  1  0
 19 20  2  0
 20 21  1  0
 20  5  1  0
 17 12  1  0
  1 22  1  0
  1 23  1  0
  1 24  1  0
  4 25  1  0
  6 26  1  0
  9 27  1  0
  9 28  1  0
 13 29  1  0
 13 30  1  0
 14 31  1  0
 14 32  1  0
 16 33  1  0
 16 34  1  0
 17 35  1  0
 17 36  1  0
 18 37  1  0
 19 38  1  0
M  END
