LIG
     RDKit          3D

 45 46  0  0  0  0  0  0  0  0999 V2000
   28.5556   14.6635   10.9912 C   0  0  0  0  0  0  0  0  0  0  0  0
   29.8653   14.8741   10.4289 N   0  0  0  0  0  0  0  0  0  0  0  0
   30.8345   15.5630   11.2637 C   0  0  0  0  0  0  0  0  0  0  0  0
   30.3828   13.9337    9.5359 C   0  0  0  0  0  0  0  0  0  0  0  0
   31.5966   13.7382    9.4931 O   0  0  0  0  0  0  0  0  0  0  0  0
   29.3947   13.2200    8.5835 C   0  0  0  0  0  0  0  0  0  0  0  0
   29.4317   11.8052    8.5373 O   0  0  0  0  0  0  0  0  0  0  0  0
   30.4792   11.1616    7.9590 C   0  0  0  0  0  0  0  0  0  0  0  0
   30.6604    9.8175    8.2760 C   0  0  0  0  0  0  0  0  0  0  0  0
   31.6481    9.0733    7.6361 C   0  0  0  0  0  0  0  0  0  0  0  0
   32.4820    9.6792    6.6997 C   0  0  0  0  0  0  0  0  0  0  0  0
   32.3166   11.0238    6.3947 C   0  0  0  0  0  0  0  0  0  0  0  0
   33.1731   11.5237    5.4584 O   0  0  0  0  0  0  0  0  0  0  0  0
   32.9556   12.8507    4.9910 C   0  0  0  0  0  0  0  0  0  0  0  0
   33.5116   13.8499    5.9846 C   0  0  0  0  0  0  0  0  0  0  0  0
   33.0614   13.8969    7.1307 O   0  0  0  0  0  0  0  0  0  0  0  0
   34.5515   14.6693    5.6159 N   0  0  0  0  0  0  0  0  0  0  0  0
   35.5114   14.8944    6.6911 C   0  0  0  0  0  0  0  0  0  0  0  0
   36.5782   13.8044    6.5552 C   0  0  0  0  0  0  0  0  0  0  0  0
   37.2861   13.9991    5.3122 O   0  0  0  0  0  0  0  0  0  0  0  0
   36.3862   13.8106    4.2025 C   0  0  0  0  0  0  0  0  0  0  0  0
   35.1786   14.7525    4.2922 C   0  0  0  0  0  0  0  0  0  0  0  0
   31.2973   11.7437    7.0103 C   0  0  0  0  0  0  0  0  0  0  0  0
   28.4997   15.1213   11.9802 H   0  0  0  0  0  0  0  0  0  0  0  0
   27.8169   15.0972   10.3137 H   0  0  0  0  0  0  0  0  0  0  0  0
   28.3271   13.6059   11.1050 H   0  0  0  0  0  0  0  0  0  0  0  0
   30.4409   16.5089   11.6323 H   0  0  0  0  0  0  0  0  0  0  0  0
   31.0555   14.9290   12.1149 H   0  0  0  0  0  0  0  0  0  0  0  0
   31.7588   15.7664   10.7174 H   0  0  0  0  0  0  0  0  0  0  0  0
   29.5007   13.6648    7.5872 H   0  0  0  0  0  0  0  0  0  0  0  0
   28.3665   13.4706    8.8541 H   0  0  0  0  0  0  0  0  0  0  0  0
   30.0198    9.3312    9.0044 H   0  0  0  0  0  0  0  0  0  0  0  0
   31.7611    8.0203    7.8723 H   0  0  0  0  0  0  0  0  0  0  0  0
   33.2543    9.0943    6.2058 H   0  0  0  0  0  0  0  0  0  0  0  0
   31.9046   13.0724    4.7772 H   0  0  0  0  0  0  0  0  0  0  0  0
   33.4622   12.9013    4.0286 H   0  0  0  0  0  0  0  0  0  0  0  0
   35.0539   14.8628    7.6838 H   0  0  0  0  0  0  0  0  0  0  0  0
   35.9476   15.8763    6.5323 H   0  0  0  0  0  0  0  0  0  0  0  0
   36.1295   12.8087    6.5334 H   0  0  0  0  0  0  0  0  0  0  0  0
   37.2978   13.8134    7.3761 H   0  0  0  0  0  0  0  0  0  0  0  0
   36.9457   14.0024    3.2818 H   0  0  0  0  0  0  0  0  0  0  0  0
   36.0674   12.7617    4.1867 H   0  0  0  0  0  0  0  0  0  0  0  0
   35.5358   15.7766    4.1623 H   0  0  0  0  0  0  0  0  0  0  0  0
   34.4556   14.5660    3.4953 H   0  0  0  0  0  0  0  0  0  0  0  0
   31.1203   12.7711    6.7417 H   0  0  0  0  0  0  0  0  0  0  0  0
  1  2  1  0
  2  3  1  0
  2  4  1  0
  4  5  2  0
  4  6  1  0
  6  7  1  0
  7  8  1  0
  8  9  2  0
  9 10  1  0
 10 11  2  0
 11 12  1  0
 12 13  1  0
 13 14  1  0
 14 15  1  0
 15 16  2  0
 15 17  1  0
 17 18  1  0
 18 19  1  0
 19 20  1  0
 20 21  1  0
 21 22  1  0
 12 23  2  0
 23  8  1  0
 22 17  1  0
  1 24  1  0
  1 25  1  0
  1 26  1  0
  3 27  1  0
  3 28  1  0
  3 29  1  0
  6 30  1  0
  6 31  1  0
  9 32  1  0
 10 33  1  0
 11 34  1  0
 14 35  1  0
 14 36  1  0
 18 37  1  0
 18 38  1  0
 19 39  1  0
 19 40  1  0
 21 41  1  0
 21 42  1  0
 22 43  1  0
 22 44  1  0
 23 45  1  0
M  END
