LIG
     RDKit          3D

 38 39  0  0  0  0  0  0  0  0999 V2000
   28.5580   15.7160    7.2730 N   0  0  0  0  0  0  0  0  0  0  0  0
   28.5830   14.6820    7.7450 C   0  0  0  0  0  0  0  0  0  0  0  0
   28.7130   13.3600    8.3510 C   0  0  0  0  0  0  0  0  0  0  0  0
   29.7090   12.5130    7.5840 C   0  0  0  0  0  0  0  0  0  0  0  0
   29.9180   12.6920    6.3980 O   0  0  0  0  0  0  0  0  0  0  0  0
   30.5162   12.3023    8.6998 N   0  0  0  0  0  0  0  0  0  0  0  0
   31.1650   10.7950    9.1290 C   0  0  0  0  0  0  0  0  0  0  0  0
   31.5630    9.4800    8.9430 C   0  0  0  0  0  0  0  0  0  0  0  0
   32.6580    9.2460    8.1260 C   0  0  0  0  0  0  0  0  0  0  0  0
   33.3470   10.2740    7.4930 N   0  0  0  0  0  0  0  0  0  0  0  0
   32.8900   11.5720    7.6690 C   0  0  0  0  0  0  0  0  0  0  0  0
   33.3940   12.4720    6.7660 O   0  0  0  0  0  0  0  0  0  0  0  0
   32.5070   13.2300    6.0470 C   0  0  0  0  0  0  0  0  0  0  0  0
   32.8430   14.5690    6.5820 C   0  0  0  0  0  0  0  0  0  0  0  0
   32.2450   15.0040    7.5510 O   0  0  0  0  0  0  0  0  0  0  0  0
   33.9260   15.1770    6.0590 N   0  0  0  0  0  0  0  0  0  0  0  0
   34.7260   15.9040    7.0650 C   0  0  0  0  0  0  0  0  0  0  0  0
   36.2000   15.5640    6.9400 C   0  0  0  0  0  0  0  0  0  0  0  0
   36.6530   15.7410    5.6230 O   0  0  0  0  0  0  0  0  0  0  0  0
   35.9790   14.7950    4.8070 C   0  0  0  0  0  0  0  0  0  0  0  0
   34.5050   15.1130    4.7140 C   0  0  0  0  0  0  0  0  0  0  0  0
   31.8380   11.8440    8.5230 C   0  0  0  0  0  0  0  0  0  0  0  0
   27.7433   12.8472    8.3836 H   0  0  0  0  0  0  0  0  0  0  0  0
   29.0575   13.4383    9.3899 H   0  0  0  0  0  0  0  0  0  0  0  0
   30.5568   12.9739    9.4587 H   0  0  0  0  0  0  0  0  0  0  0  0
   31.0706    8.6374    9.4023 H   0  0  0  0  0  0  0  0  0  0  0  0
   33.0340    8.2641    7.9355 H   0  0  0  0  0  0  0  0  0  0  0  0
   32.6126   13.1291    5.0147 H   0  0  0  0  0  0  0  0  0  0  0  0
   31.5334   12.9953    6.3904 H   0  0  0  0  0  0  0  0  0  0  0  0
   34.5704   16.9854    6.9695 H   0  0  0  0  0  0  0  0  0  0  0  0
   34.3361   15.5958    8.0450 H   0  0  0  0  0  0  0  0  0  0  0  0
   36.7875   16.2121    7.5871 H   0  0  0  0  0  0  0  0  0  0  0  0
   36.3769   14.5324    7.2307 H   0  0  0  0  0  0  0  0  0  0  0  0
   36.1398   13.8032    5.2327 H   0  0  0  0  0  0  0  0  0  0  0  0
   36.4396   14.8170    3.8200 H   0  0  0  0  0  0  0  0  0  0  0  0
   34.3457   16.0930    4.2622 H   0  0  0  0  0  0  0  0  0  0  0  0
   33.9924   14.3553    4.1269 H   0  0  0  0  0  0  0  0  0  0  0  0
   31.5703   12.8857    8.7058 H   0  0  0  0  0  0  0  0  0  0  0  0
  1  2  3  0
  2  3  1  0
  3  4  1  0
  4  5  2  0
  4  6  1  0
  6  7  1  0
  7  8  4  0
  8  9  4  0
  9 10  4  0
 10 11  4  0
 11 12  1  0
 12 13  1  0
 13 14  1  0
 14 15  2  0
 14 16  1  0
 16 17  1  0
 17 18  1  0
 18 19  1  0
 19 20  1  0
 20 21  1  0
 11 22  4  0
 22  7  4  0
 21 16  1  0
  3 23  1  0
  3 24  1  0
  6 25  1  0
  8 26  1  0
  9 27  1  0
 13 28  1  0
 13 29  1  0
 17 30  1  0
 17 31  1  0
 18 32  1  0
 18 33  1  0
 20 34  1  0
 20 35  1  0
 21 36  1  0
 21 37  1  0
 22 38  1  0
M  END
