LIG
     RDKit          3D

 40 40  0  0  0  0  0  0  0  0999 V2000
   30.1323    8.7699    8.4132 C   0  0  0  0  0  0  0  0  0  0  0  0
   30.9804    9.8056    7.7486 C   0  0  0  0  0  0  0  0  0  0  0  0
   32.0206    9.3935    6.8997 C   0  0  0  0  0  0  0  0  0  0  0  0
   32.9097   10.3087    6.3290 C   0  0  0  0  0  0  0  0  0  0  0  0
   33.9468    9.8367    5.3523 C   0  0  0  0  0  0  0  0  0  0  0  0
   32.8081   11.6375    6.7438 C   0  0  0  0  0  0  0  0  0  0  0  0
   33.8658   12.5196    6.5217 N   0  0  0  0  0  0  0  0  0  0  0  0
   34.3530   13.3517    7.5244 C   0  0  0  0  0  0  0  0  0  0  0  0
   33.9551   13.3739    8.6877 O   0  0  0  0  0  0  0  0  0  0  0  0
   35.5216   14.2036    7.0332 C   0  0  0  0  0  0  0  0  0  0  0  0
   35.6799   14.2476    5.6073 O   0  0  0  0  0  0  0  0  0  0  0  0
   34.6118   14.9432    4.9917 C   0  0  0  0  0  0  0  0  0  0  0  0
   34.7031   15.5374    3.5698 C   0  0  0  0  0  0  0  0  0  0  0  0
   33.7118   15.4117    2.8354 O   0  0  0  0  0  0  0  0  0  0  0  0
   35.8332   16.2201    3.1578 N   0  0  0  0  0  0  0  0  0  0  0  0
   35.8140   16.9022    1.8791 C   0  0  0  0  0  0  0  0  0  0  0  0
   36.9890   16.5022    3.9904 C   0  0  0  0  0  0  0  0  0  0  0  0
   31.6937   12.0810    7.4507 C   0  0  0  0  0  0  0  0  0  0  0  0
   30.7654   11.1696    7.9088 C   0  0  0  0  0  0  0  0  0  0  0  0
   29.6615   11.6953    8.5016 O   0  0  0  0  0  0  0  0  0  0  0  0
   29.1568    8.6908    7.9357 H   0  0  0  0  0  0  0  0  0  0  0  0
   30.6089    7.7932    8.3616 H   0  0  0  0  0  0  0  0  0  0  0  0
   30.0149    8.9992    9.4759 H   0  0  0  0  0  0  0  0  0  0  0  0
   32.1599    8.3309    6.7149 H   0  0  0  0  0  0  0  0  0  0  0  0
   34.9499   10.1719    5.6196 H   0  0  0  0  0  0  0  0  0  0  0  0
   33.7077   10.2181    4.3542 H   0  0  0  0  0  0  0  0  0  0  0  0
   33.9760    8.7457    5.2929 H   0  0  0  0  0  0  0  0  0  0  0  0
   34.5937   12.2490    5.8681 H   0  0  0  0  0  0  0  0  0  0  0  0
   36.4361   13.7633    7.4428 H   0  0  0  0  0  0  0  0  0  0  0  0
   35.4214   15.2159    7.4325 H   0  0  0  0  0  0  0  0  0  0  0  0
   34.2807   15.7217    5.6649 H   0  0  0  0  0  0  0  0  0  0  0  0
   33.7674   14.2503    4.9118 H   0  0  0  0  0  0  0  0  0  0  0  0
   35.6792   17.9738    2.0558 H   0  0  0  0  0  0  0  0  0  0  0  0
   35.0057   16.5484    1.2338 H   0  0  0  0  0  0  0  0  0  0  0  0
   36.7667   16.7333    1.3681 H   0  0  0  0  0  0  0  0  0  0  0  0
   37.1508   17.5836    4.0413 H   0  0  0  0  0  0  0  0  0  0  0  0
   37.8646   16.0453    3.5185 H   0  0  0  0  0  0  0  0  0  0  0  0
   36.8984   16.1038    4.9954 H   0  0  0  0  0  0  0  0  0  0  0  0
   31.5605   13.1340    7.6806 H   0  0  0  0  0  0  0  0  0  0  0  0
   29.6446   11.4075    9.4384 H   0  0  0  0  0  0  0  0  0  0  0  0
  1  2  1  0
  2  3  2  0
  3  4  1  0
  4  5  1  0
  4  6  2  0
  6  7  1  0
  7  8  1  0
  8  9  2  0
  8 10  1  0
 10 11  1  0
 11 12  1  0
 12 13  1  0
 13 14  2  0
 13 15  1  0
 15 16  1  0
 15 17  1  0
  6 18  1  0
 18 19  2  0
 19 20  1  0
 19  2  1  0
  1 21  1  0
  1 22  1  0
  1 23  1  0
  3 24  1  0
  5 25  1  0
  5 26  1  0
  5 27  1  0
  7 28  1  0
 10 29  1  0
 10 30  1  0
 12 31  1  0
 12 32  1  0
 16 33  1  0
 16 34  1  0
 16 35  1  0
 17 36  1  0
 17 37  1  0
 17 38  1  0
 18 39  1  0
 20 40  1  0
M  END
