LIG
     RDKit          3D

 40 40  0  0  0  0  0  0  0  0999 V2000
   30.1321    8.7471    8.4575 C   0  0  0  0  0  0  0  0  0  0  0  0
   30.9276    9.8088    7.7699 C   0  0  0  0  0  0  0  0  0  0  0  0
   31.9882    9.4283    6.9283 C   0  0  0  0  0  0  0  0  0  0  0  0
   32.8183   10.3762    6.3238 C   0  0  0  0  0  0  0  0  0  0  0  0
   33.9156    9.9374    5.4000 C   0  0  0  0  0  0  0  0  0  0  0  0
   32.6016   11.7125    6.6614 C   0  0  0  0  0  0  0  0  0  0  0  0
   33.5532   12.6860    6.3866 N   0  0  0  0  0  0  0  0  0  0  0  0
   34.2172   13.2774    7.4658 C   0  0  0  0  0  0  0  0  0  0  0  0
   33.9235   13.1547    8.6549 O   0  0  0  0  0  0  0  0  0  0  0  0
   35.3898   14.0969    6.9801 C   0  0  0  0  0  0  0  0  0  0  0  0
   35.6163   13.7641    5.5912 O   0  0  0  0  0  0  0  0  0  0  0  0
   36.8805   14.1745    5.0676 C   0  0  0  0  0  0  0  0  0  0  0  0
   37.0960   15.6676    5.1131 C   0  0  0  0  0  0  0  0  0  0  0  0
   36.4649   16.2628    5.9741 O   0  0  0  0  0  0  0  0  0  0  0  0
   38.0459   16.2940    4.3267 N   0  0  0  0  0  0  0  0  0  0  0  0
   38.0986   17.7589    4.2370 C   0  0  0  0  0  0  0  0  0  0  0  0
   39.1872   15.6024    3.7813 C   0  0  0  0  0  0  0  0  0  0  0  0
   31.4858   12.1136    7.3834 C   0  0  0  0  0  0  0  0  0  0  0  0
   30.6385   11.1639    7.9000 C   0  0  0  0  0  0  0  0  0  0  0  0
   29.5327   11.6550    8.5134 O   0  0  0  0  0  0  0  0  0  0  0  0
   29.1624    8.6092    7.9800 H   0  0  0  0  0  0  0  0  0  0  0  0
   30.6594    7.7965    8.4269 H   0  0  0  0  0  0  0  0  0  0  0  0
   30.0014    8.9923    9.5149 H   0  0  0  0  0  0  0  0  0  0  0  0
   32.1895    8.3694    6.7791 H   0  0  0  0  0  0  0  0  0  0  0  0
   33.6378   10.1648    4.3661 H   0  0  0  0  0  0  0  0  0  0  0  0
   34.0942    8.8606    5.4739 H   0  0  0  0  0  0  0  0  0  0  0  0
   34.8614   10.4367    5.6225 H   0  0  0  0  0  0  0  0  0  0  0  0
   34.2139   12.5346    5.6277 H   0  0  0  0  0  0  0  0  0  0  0  0
   35.0693   15.1307    7.1067 H   0  0  0  0  0  0  0  0  0  0  0  0
   36.2700   13.8537    7.5815 H   0  0  0  0  0  0  0  0  0  0  0  0
   36.9120   13.8416    4.0259 H   0  0  0  0  0  0  0  0  0  0  0  0
   37.6802   13.6720    5.6218 H   0  0  0  0  0  0  0  0  0  0  0  0
   37.2748   18.2452    4.7519 H   0  0  0  0  0  0  0  0  0  0  0  0
   39.0496   18.1206    4.6372 H   0  0  0  0  0  0  0  0  0  0  0  0
   38.0471   18.0280    3.1772 H   0  0  0  0  0  0  0  0  0  0  0  0
   39.1247   14.5214    3.9177 H   0  0  0  0  0  0  0  0  0  0  0  0
   39.2543   15.8218    2.7117 H   0  0  0  0  0  0  0  0  0  0  0  0
   40.0941   15.9588    4.2785 H   0  0  0  0  0  0  0  0  0  0  0  0
   31.2997   13.1653    7.5794 H   0  0  0  0  0  0  0  0  0  0  0  0
   29.5783   11.4103    9.4615 H   0  0  0  0  0  0  0  0  0  0  0  0
  1  2  1  0
  2  3  2  0
  3  4  1  0
  4  5  1  0
  4  6  2  0
  6  7  1  0
  7  8  1  0
  8  9  2  0
  8 10  1  0
 10 11  1  0
 11 12  1  0
 12 13  1  0
 13 14  2  0
 13 15  1  0
 15 16  1  0
 15 17  1  0
  6 18  1  0
 18 19  2  0
 19 20  1  0
 19  2  1  0
  1 21  1  0
  1 22  1  0
  1 23  1  0
  3 24  1  0
  5 25  1  0
  5 26  1  0
  5 27  1  0
  7 28  1  0
 10 29  1  0
 10 30  1  0
 12 31  1  0
 12 32  1  0
 16 33  1  0
 16 34  1  0
 16 35  1  0
 17 36  1  0
 17 37  1  0
 17 38  1  0
 18 39  1  0
 20 40  1  0
M  END
