LIG
     RDKit          3D

 41 42  0  0  0  0  0  0  0  0999 V2000
   33.6726   16.1279    9.6468 C   0  0  0  0  0  0  0  0  0  0  0  0
   32.3454   16.2167    9.1357 N   0  0  0  0  0  0  0  0  0  0  0  0
   31.9064   17.5897    8.9735 C   0  0  0  0  0  0  0  0  0  0  0  0
   32.0835   15.3058    8.0999 C   0  0  0  0  0  0  0  0  0  0  0  0
   31.7692   15.6415    6.9621 O   0  0  0  0  0  0  0  0  0  0  0  0
   32.2538   13.8522    8.4526 C   0  0  0  0  0  0  0  0  0  0  0  0
   31.3117   13.0077    7.8092 O   0  0  0  0  0  0  0  0  0  0  0  0
   31.7832   12.1550    6.8473 C   0  0  0  0  0  0  0  0  0  0  0  0
   31.2664   10.8520    6.7815 C   0  0  0  0  0  0  0  0  0  0  0  0
   31.6688    9.9811    5.8006 C   0  0  0  0  0  0  0  0  0  0  0  0
   32.5643   10.4593    4.8711 C   0  0  0  0  0  0  0  0  0  0  0  0
   32.8596    9.6928    3.8325 F   0  0  0  0  0  0  0  0  0  0  0  0
   33.1100   11.7336    4.9350 C   0  0  0  0  0  0  0  0  0  0  0  0
   33.9698   12.1746    3.9357 N   0  0  0  0  0  0  0  0  0  0  0  0
   34.6187   13.3936    3.9462 C   0  0  0  0  0  0  0  0  0  0  0  0
   34.8437   14.0950    4.9284 O   0  0  0  0  0  0  0  0  0  0  0  0
   34.9480   13.8658    2.5393 C   0  0  0  0  0  0  0  0  0  0  0  0
   33.8106   14.7278    2.0092 C   0  0  0  0  0  0  0  0  0  0  0  0
   33.8391   14.4280    0.5356 C   0  0  0  0  0  0  0  0  0  0  0  0
   34.2036   12.9636    0.5236 C   0  0  0  0  0  0  0  0  0  0  0  0
   35.0851   12.7506    1.6326 O   0  0  0  0  0  0  0  0  0  0  0  0
   32.6994   12.5844    5.9283 C   0  0  0  0  0  0  0  0  0  0  0  0
   33.9709   15.1068    9.8975 H   0  0  0  0  0  0  0  0  0  0  0  0
   33.8046   16.7926   10.4994 H   0  0  0  0  0  0  0  0  0  0  0  0
   34.3692   16.4584    8.8652 H   0  0  0  0  0  0  0  0  0  0  0  0
   30.9656   17.6931    8.4341 H   0  0  0  0  0  0  0  0  0  0  0  0
   31.8166   18.0602    9.9567 H   0  0  0  0  0  0  0  0  0  0  0  0
   32.6556   18.1339    8.3862 H   0  0  0  0  0  0  0  0  0  0  0  0
   32.1370   13.7373    9.5259 H   0  0  0  0  0  0  0  0  0  0  0  0
   33.2933   13.5670    8.2416 H   0  0  0  0  0  0  0  0  0  0  0  0
   30.5267   10.5133    7.4908 H   0  0  0  0  0  0  0  0  0  0  0  0
   31.2650    8.9787    5.7289 H   0  0  0  0  0  0  0  0  0  0  0  0
   34.1095   11.5896    3.1167 H   0  0  0  0  0  0  0  0  0  0  0  0
   35.9045   14.3988    2.5494 H   0  0  0  0  0  0  0  0  0  0  0  0
   32.8438   14.4291    2.4334 H   0  0  0  0  0  0  0  0  0  0  0  0
   33.9534   15.7890    2.2339 H   0  0  0  0  0  0  0  0  0  0  0  0
   34.6304   15.0148    0.0544 H   0  0  0  0  0  0  0  0  0  0  0  0
   32.8960   14.6392    0.0251 H   0  0  0  0  0  0  0  0  0  0  0  0
   34.6974   12.6595   -0.4034 H   0  0  0  0  0  0  0  0  0  0  0  0
   33.3198   12.3330    0.6705 H   0  0  0  0  0  0  0  0  0  0  0  0
   33.0030   13.6224    5.9575 H   0  0  0  0  0  0  0  0  0  0  0  0
  1  2  1  0
  2  3  1  0
  2  4  1  0
  4  5  2  0
  4  6  1  0
  6  7  1  0
  7  8  1  0
  8  9  2  0
  9 10  1  0
 10 11  2  0
 11 12  1  0
 11 13  1  0
 13 14  1  0
 14 15  1  0
 15 16  2  0
 15 17  1  0
 17 18  1  0
 18 19  1  0
 19 20  1  0
 20 21  1  0
 13 22  2  0
 22  8  1  0
 21 17  1  0
  1 23  1  0
  1 24  1  0
  1 25  1  0
  3 26  1  0
  3 27  1  0
  3 28  1  0
  6 29  1  0
  6 30  1  0
  9 31  1  0
 10 32  1  0
 14 33  1  0
 17 34  1  0
 18 35  1  0
 18 36  1  0
 19 37  1  0
 19 38  1  0
 20 39  1  0
 20 40  1  0
 22 41  1  0
M  END
