LIG
     RDKit          3D

 35 36  0  0  0  0  0  0  0  0999 V2000
   28.6393   15.9946    8.0856 N   0  0  0  0  0  0  0  0  0  0  0  0
   28.5053   14.8488    8.1881 C   0  0  0  0  0  0  0  0  0  0  0  0
   28.3645   13.4114    8.3469 C   0  0  0  0  0  0  0  0  0  0  0  0
   29.3911   12.7083    7.5169 C   0  0  0  0  0  0  0  0  0  0  0  0
   29.5308   12.9720    6.3210 O   0  0  0  0  0  0  0  0  0  0  0  0
   30.0983   11.7207    8.1845 N   0  0  0  0  0  0  0  0  0  0  0  0
   31.1381   11.0281    7.5410 C   0  0  0  0  0  0  0  0  0  0  0  0
   31.9849   11.7065    6.6582 C   0  0  0  0  0  0  0  0  0  0  0  0
   32.9271   11.0381    5.8854 C   0  0  0  0  0  0  0  0  0  0  0  0
   33.7063   11.7008    4.9173 N   0  0  0  0  0  0  0  0  0  0  0  0
   33.7586   13.0714    4.6934 C   0  0  0  0  0  0  0  0  0  0  0  0
   33.2516   13.9499    5.3865 O   0  0  0  0  0  0  0  0  0  0  0  0
   34.5496   13.4395    3.4336 C   0  0  0  0  0  0  0  0  0  0  0  0
   33.7598   14.4202    2.5770 C   0  0  0  0  0  0  0  0  0  0  0  0
   34.2812   14.1302    1.1955 C   0  0  0  0  0  0  0  0  0  0  0  0
   34.4852   12.6342    1.2479 C   0  0  0  0  0  0  0  0  0  0  0  0
   34.8499   12.3063    2.5975 O   0  0  0  0  0  0  0  0  0  0  0  0
   33.0417    9.6572    6.0422 C   0  0  0  0  0  0  0  0  0  0  0  0
   32.2375    8.9840    6.9769 C   0  0  0  0  0  0  0  0  0  0  0  0
   31.3055    9.6694    7.7405 C   0  0  0  0  0  0  0  0  0  0  0  0
   30.5468    9.0048    8.6243 F   0  0  0  0  0  0  0  0  0  0  0  0
   28.4354   13.1380    9.4000 H   0  0  0  0  0  0  0  0  0  0  0  0
   27.4044   13.0768    7.9597 H   0  0  0  0  0  0  0  0  0  0  0  0
   29.6298   11.2536    8.9642 H   0  0  0  0  0  0  0  0  0  0  0  0
   31.8598   12.7785    6.5624 H   0  0  0  0  0  0  0  0  0  0  0  0
   34.2910   11.1451    4.2998 H   0  0  0  0  0  0  0  0  0  0  0  0
   35.5062   13.8715    3.7497 H   0  0  0  0  0  0  0  0  0  0  0  0
   33.9070   15.4601    2.8837 H   0  0  0  0  0  0  0  0  0  0  0  0
   32.6841   14.2082    2.6224 H   0  0  0  0  0  0  0  0  0  0  0  0
   33.6066   14.4432    0.3946 H   0  0  0  0  0  0  0  0  0  0  0  0
   35.2444   14.6338    1.0508 H   0  0  0  0  0  0  0  0  0  0  0  0
   33.5574   12.0999    1.0160 H   0  0  0  0  0  0  0  0  0  0  0  0
   35.2652   12.2908    0.5628 H   0  0  0  0  0  0  0  0  0  0  0  0
   33.7571    9.0836    5.4580 H   0  0  0  0  0  0  0  0  0  0  0  0
   32.3289    7.9172    7.1275 H   0  0  0  0  0  0  0  0  0  0  0  0
  1  2  3  0
  2  3  1  0
  3  4  1  0
  4  5  2  0
  4  6  1  0
  6  7  1  0
  7  8  2  0
  8  9  1  0
  9 10  1  0
 10 11  1  0
 11 12  2  0
 11 13  1  0
 13 14  1  0
 14 15  1  0
 15 16  1  0
 16 17  1  0
  9 18  2  0
 18 19  1  0
 19 20  2  0
 20 21  1  0
 20  7  1  0
 17 13  1  0
  3 22  1  0
  3 23  1  0
  6 24  1  0
  8 25  1  0
 10 26  1  0
 13 27  1  0
 14 28  1  0
 14 29  1  0
 15 30  1  0
 15 31  1  0
 16 32  1  0
 16 33  1  0
 18 34  1  0
 19 35  1  0
M  END
