LIG
     RDKit          3D

 38 39  0  0  0  0  0  0  0  0999 V2000
   35.1104    8.5974    3.8610 C   0  0  0  0  0  0  0  0  0  0  0  0
   35.2899   10.0497    4.1516 C   0  0  0  0  0  0  0  0  0  0  0  0
   36.2626   10.6816    3.7332 O   0  0  0  0  0  0  0  0  0  0  0  0
   34.3594   10.7253    4.8494 N   0  0  0  0  0  0  0  0  0  0  0  0
   33.3189   10.3533    5.6936 C   0  0  0  0  0  0  0  0  0  0  0  0
   33.0480    9.1200    6.2473 C   0  0  0  0  0  0  0  0  0  0  0  0
   32.0353    8.9663    7.2007 C   0  0  0  0  0  0  0  0  0  0  0  0
   31.3601   10.0805    7.6667 C   0  0  0  0  0  0  0  0  0  0  0  0
   31.6607   11.3129    7.1244 C   0  0  0  0  0  0  0  0  0  0  0  0
   31.0972   12.4088    7.6710 O   0  0  0  0  0  0  0  0  0  0  0  0
   31.7496   13.6208    7.3460 C   0  0  0  0  0  0  0  0  0  0  0  0
   33.2043   13.7634    7.8279 C   0  0  0  0  0  0  0  0  0  0  0  0
   33.3895   13.6679    9.0454 O   0  0  0  0  0  0  0  0  0  0  0  0
   34.2686   13.9329    6.9359 N   0  0  0  0  0  0  0  0  0  0  0  0
   35.5864   14.0405    7.5616 C   0  0  0  0  0  0  0  0  0  0  0  0
   36.6784   13.6378    6.5744 C   0  0  0  0  0  0  0  0  0  0  0  0
   36.6860   14.5380    5.4585 O   0  0  0  0  0  0  0  0  0  0  0  0
   35.4513   14.4263    4.7435 C   0  0  0  0  0  0  0  0  0  0  0  0
   34.2247   14.6395    5.6493 C   0  0  0  0  0  0  0  0  0  0  0  0
   32.5443   11.4118    6.0761 C   0  0  0  0  0  0  0  0  0  0  0  0
   34.0653    8.3623    3.6547 H   0  0  0  0  0  0  0  0  0  0  0  0
   35.6813    8.3429    2.9623 H   0  0  0  0  0  0  0  0  0  0  0  0
   35.4935    8.0014    4.6911 H   0  0  0  0  0  0  0  0  0  0  0  0
   34.6032   11.7055    4.8708 H   0  0  0  0  0  0  0  0  0  0  0  0
   33.6680    8.2758    6.0091 H   0  0  0  0  0  0  0  0  0  0  0  0
   31.8236    7.9948    7.6381 H   0  0  0  0  0  0  0  0  0  0  0  0
   30.6255    9.9897    8.4639 H   0  0  0  0  0  0  0  0  0  0  0  0
   31.6044   13.8603    6.2916 H   0  0  0  0  0  0  0  0  0  0  0  0
   31.1868   14.3576    7.9268 H   0  0  0  0  0  0  0  0  0  0  0  0
   35.7057   15.0830    7.8689 H   0  0  0  0  0  0  0  0  0  0  0  0
   35.6467   13.4277    8.4641 H   0  0  0  0  0  0  0  0  0  0  0  0
   37.6631   13.6624    7.0487 H   0  0  0  0  0  0  0  0  0  0  0  0
   36.5318   12.6195    6.1984 H   0  0  0  0  0  0  0  0  0  0  0  0
   35.4189   13.4490    4.2563 H   0  0  0  0  0  0  0  0  0  0  0  0
   35.4560   15.1775    3.9469 H   0  0  0  0  0  0  0  0  0  0  0  0
   33.2981   14.4370    5.1108 H   0  0  0  0  0  0  0  0  0  0  0  0
   34.2371   15.6829    5.9363 H   0  0  0  0  0  0  0  0  0  0  0  0
   32.6871   12.3367    5.5411 H   0  0  0  0  0  0  0  0  0  0  0  0
  1  2  1  0
  2  3  2  0
  2  4  1  0
  4  5  1  0
  5  6  2  0
  6  7  1  0
  7  8  2  0
  8  9  1  0
  9 10  1  0
 10 11  1  0
 11 12  1  0
 12 13  2  0
 12 14  1  0
 14 15  1  0
 15 16  1  0
 16 17  1  0
 17 18  1  0
 18 19  1  0
  9 20  2  0
 20  5  1  0
 19 14  1  0
  1 21  1  0
  1 22  1  0
  1 23  1  0
  4 24  1  0
  6 25  1  0
  7 26  1  0
  8 27  1  0
 11 28  1  0
 11 29  1  0
 15 30  1  0
 15 31  1  0
 16 32  1  0
 16 33  1  0
 18 34  1  0
 18 35  1  0
 19 36  1  0
 19 37  1  0
 20 38  1  0
M  END
