LIG
     RDKit          3D

 40 41  0  0  0  0  0  0  0  0999 V2000
   30.7370    8.6550    8.4540 C   0  0  0  0  0  0  0  0  0  0  0  0
   31.3020    9.7050    7.8000 C   0  0  0  0  0  0  0  0  0  0  0  0
   30.8090   10.9600    8.0540 C   0  0  0  0  0  0  0  0  0  0  0  0
   31.3600   12.0190    7.3410 C   0  0  0  0  0  0  0  0  0  0  0  0
   30.9510   13.3300    7.5050 O   0  0  0  0  0  0  0  0  0  0  0  0
   30.0580   13.6540    8.5870 C   0  0  0  0  0  0  0  0  0  0  0  0
   28.5940   13.4330    8.1660 C   0  0  0  0  0  0  0  0  0  0  0  0
   27.8900   14.7750    8.3110 C   0  0  0  0  0  0  0  0  0  0  0  0
   28.8690   15.5850    9.0100 N   0  0  0  0  0  0  0  0  0  0  0  0
   28.4820   16.7650    9.7690 C   0  0  0  0  0  0  0  0  0  0  0  0
   30.1260   15.1410    8.9140 C   0  0  0  0  0  0  0  0  0  0  0  0
   31.1310   15.8110    9.0820 O   0  0  0  0  0  0  0  0  0  0  0  0
   32.3710   11.8060    6.4170 C   0  0  0  0  0  0  0  0  0  0  0  0
   33.6520   12.7090    6.6590 N   0  0  0  0  0  0  0  0  0  0  0  0
   34.4250   13.2280    7.6390 C   0  0  0  0  0  0  0  0  0  0  0  0
   34.9120   12.5690    8.5560 O   0  0  0  0  0  0  0  0  0  0  0  0
   34.6680   14.7180    7.5670 C   0  0  0  0  0  0  0  0  0  0  0  0
   35.0470   15.1300    6.2680 O   0  0  0  0  0  0  0  0  0  0  0  0
   32.8360   10.5190    6.2010 C   0  0  0  0  0  0  0  0  0  0  0  0
   34.1980   10.0910    5.5530 C   0  0  0  0  0  0  0  0  0  0  0  0
   32.2980    9.4490    6.8970 N   0  0  0  0  0  0  0  0  0  0  0  0
   29.6204    8.6235    8.3694 H   0  0  0  0  0  0  0  0  0  0  0  0
   30.0082    8.9623    9.2471 H   0  0  0  0  0  0  0  0  0  0  0  0
   30.1562    7.9606    7.7922 H   0  0  0  0  0  0  0  0  0  0  0  0
   30.0267   11.1201    8.7858 H   0  0  0  0  0  0  0  0  0  0  0  0
   30.2820   13.0963    9.5009 H   0  0  0  0  0  0  0  0  0  0  0  0
   28.1068   12.6378    8.7603 H   0  0  0  0  0  0  0  0  0  0  0  0
   28.5497   13.0885    7.1135 H   0  0  0  0  0  0  0  0  0  0  0  0
   27.6451   15.2212    7.3457 H   0  0  0  0  0  0  0  0  0  0  0  0
   26.9944   14.6970    8.9328 H   0  0  0  0  0  0  0  0  0  0  0  0
   27.5267   17.1478    9.4062 H   0  0  0  0  0  0  0  0  0  0  0  0
   28.3992   16.4937   10.8225 H   0  0  0  0  0  0  0  0  0  0  0  0
   29.2508   17.5286    9.6361 H   0  0  0  0  0  0  0  0  0  0  0  0
   34.0558   12.8835    5.6682 H   0  0  0  0  0  0  0  0  0  0  0  0
   35.4784   14.9726    8.2531 H   0  0  0  0  0  0  0  0  0  0  0  0
   33.7609   15.2540    7.8544 H   0  0  0  0  0  0  0  0  0  0  0  0
   34.8627   14.3801    5.6695 H   0  0  0  0  0  0  0  0  0  0  0  0
   35.0041   10.5649    6.0945 H   0  0  0  0  0  0  0  0  0  0  0  0
   34.7532   10.9746    5.2710 H   0  0  0  0  0  0  0  0  0  0  0  0
   34.2194   10.4417    4.5270 H   0  0  0  0  0  0  0  0  0  0  0  0
  1  2  1  0
  2  3  4  0
  3  4  4  0
  4  5  1  0
  5  6  1  0
  6  7  1  0
  7  8  1  0
  8  9  1  0
  9 10  1  0
  9 11  1  0
 11 12  2  0
  4 13  4  0
 13 14  1  0
 14 15  1  0
 15 16  2  0
 15 17  1  0
 17 18  1  0
 13 19  4  0
 19 20  1  0
 19 21  4  0
 21  2  4  0
 11  6  1  0
  1 22  1  0
  1 23  1  0
  1 24  1  0
  3 25  1  0
  6 26  1  0
  7 27  1  0
  7 28  1  0
  8 29  1  0
  8 30  1  0
 10 31  1  0
 10 32  1  0
 10 33  1  0
 14 34  1  0
 17 35  1  0
 17 36  1  0
 18 37  1  0
 20 38  1  0
 20 39  1  0
 20 40  1  0
M  END
