LIG
     RDKit          3D

 38 39  0  0  0  0  0  0  0  0999 V2000
   34.1980   10.0910    5.5530 C   0  0  0  0  0  0  0  0  0  0  0  0
   32.8360   10.5190    6.2010 C   0  0  0  0  0  0  0  0  0  0  0  0
   32.2980    9.4490    6.8970 C   0  0  0  0  0  0  0  0  0  0  0  0
   31.3020    9.7050    7.8000 C   0  0  0  0  0  0  0  0  0  0  0  0
   30.8090   10.9600    8.0540 C   0  0  0  0  0  0  0  0  0  0  0  0
   31.3600   12.0190    7.3410 C   0  0  0  0  0  0  0  0  0  0  0  0
   30.9510   13.3300    7.5050 O   0  0  0  0  0  0  0  0  0  0  0  0
   30.0580   13.6540    8.5870 C   0  0  0  0  0  0  0  0  0  0  0  0
   28.5940   13.4330    8.1660 C   0  0  0  0  0  0  0  0  0  0  0  0
   27.8900   14.7750    8.3110 C   0  0  0  0  0  0  0  0  0  0  0  0
   28.8690   15.5850    9.0100 N   0  0  0  0  0  0  0  0  0  0  0  0
   28.4820   16.7650    9.7690 C   0  0  0  0  0  0  0  0  0  0  0  0
   30.1260   15.1410    8.9140 C   0  0  0  0  0  0  0  0  0  0  0  0
   31.1310   15.8110    9.0820 O   0  0  0  0  0  0  0  0  0  0  0  0
   32.3710   11.8060    6.4170 C   0  0  0  0  0  0  0  0  0  0  0  0
   33.6520   12.7090    6.6590 N   0  0  0  0  0  0  0  0  0  0  0  0
   34.4250   13.2280    7.6390 C   0  0  0  0  0  0  0  0  0  0  0  0
   34.9120   12.5690    8.5560 O   0  0  0  0  0  0  0  0  0  0  0  0
   34.6680   14.7180    7.5670 C   0  0  0  0  0  0  0  0  0  0  0  0
   35.0470   15.1300    6.2680 S   0  0  0  0  0  0  0  0  0  0  0  0
   35.0096   10.5489    6.1043 H   0  0  0  0  0  0  0  0  0  0  0  0
   34.8306    9.6146    6.2908 H   0  0  0  0  0  0  0  0  0  0  0  0
   34.2892    9.0105    5.6078 H   0  0  0  0  0  0  0  0  0  0  0  0
   32.6232    8.4423    6.7159 H   0  0  0  0  0  0  0  0  0  0  0  0
   30.8494    8.8394    8.3512 H   0  0  0  0  0  0  0  0  0  0  0  0
   30.0323   11.1231    8.7796 H   0  0  0  0  0  0  0  0  0  0  0  0
   30.2806   13.0983    9.5155 H   0  0  0  0  0  0  0  0  0  0  0  0
   28.5515   13.0861    7.1135 H   0  0  0  0  0  0  0  0  0  0  0  0
   28.1073   12.6376    8.7619 H   0  0  0  0  0  0  0  0  0  0  0  0
   27.6450   15.2205    7.3454 H   0  0  0  0  0  0  0  0  0  0  0  0
   26.9946   14.6989    8.9333 H   0  0  0  0  0  0  0  0  0  0  0  0
   27.3963   16.8735    9.7668 H   0  0  0  0  0  0  0  0  0  0  0  0
   29.3618   17.3943    9.9119 H   0  0  0  0  0  0  0  0  0  0  0  0
   29.0592   16.7840   10.6953 H   0  0  0  0  0  0  0  0  0  0  0  0
   33.7260   13.3210    5.7219 H   0  0  0  0  0  0  0  0  0  0  0  0
   33.7193   15.2019    8.0105 H   0  0  0  0  0  0  0  0  0  0  0  0
   35.4082   14.8919    8.4426 H   0  0  0  0  0  0  0  0  0  0  0  0
   35.0005   16.5049    6.3130 H   0  0  0  0  0  0  0  0  0  0  0  0
  1  2  1  0
  2  3  4  0
  3  4  4  0
  4  5  4  0
  5  6  4  0
  6  7  1  0
  7  8  1  0
  8  9  1  0
  9 10  1  0
 10 11  1  0
 11 12  1  0
 11 13  1  0
 13 14  2  0
  6 15  4  0
 15 16  1  0
 16 17  1  0
 17 18  2  0
 17 19  1  0
 19 20  1  0
 15  2  4  0
 13  8  1  0
  1 21  1  0
  1 22  1  0
  1 23  1  0
  3 24  1  0
  4 25  1  0
  5 26  1  0
  8 27  1  0
  9 28  1  0
  9 29  1  0
 10 30  1  0
 10 31  1  0
 12 32  1  0
 12 33  1  0
 12 34  1  0
 16 35  1  0
 19 36  1  0
 19 37  1  0
 20 38  1  0
M  END
