LIG
     RDKit          3D

 41 42  0  0  0  0  0  0  0  0999 V2000
    2.5796   -3.0495    0.1680 C   0  0  0  0  0  0  0  0  0  0  0  0
    1.8038   -1.8918   -0.3888 C   0  0  0  0  0  0  0  0  0  0  0  0
    0.4460   -1.7837   -0.0898 C   0  0  0  0  0  0  0  0  0  0  0  0
   -0.3576   -0.7925   -0.5236 N   0  0  0  0  0  0  0  0  0  0  0  0
    0.2243    0.1586   -1.2796 C   0  0  0  0  0  0  0  0  0  0  0  0
   -0.5352    1.2057   -1.7644 O   0  0  0  0  0  0  0  0  0  0  0  0
   -1.8257    1.2806   -1.1734 C   0  0  0  0  0  0  0  0  0  0  0  0
   -1.8445    1.7641    0.2889 C   0  0  0  0  0  0  0  0  0  0  0  0
   -0.8983    2.3885    0.7743 O   0  0  0  0  0  0  0  0  0  0  0  0
   -2.9900    1.4965    1.0286 N   0  0  0  0  0  0  0  0  0  0  0  0
   -4.1798    0.8131    0.5178 C   0  0  0  0  0  0  0  0  0  0  0  0
   -5.4009    1.0895    1.4007 C   0  0  0  0  0  0  0  0  0  0  0  0
   -5.2152    0.7020    2.7678 O   0  0  0  0  0  0  0  0  0  0  0  0
   -3.8632    0.8311    3.2355 C   0  0  0  0  0  0  0  0  0  0  0  0
   -3.0257    1.8448    2.4497 C   0  0  0  0  0  0  0  0  0  0  0  0
    1.5600    0.1454   -1.6485 C   0  0  0  0  0  0  0  0  0  0  0  0
    2.3741   -0.8941   -1.2007 C   0  0  0  0  0  0  0  0  0  0  0  0
    3.7510   -0.9898   -1.5316 N   0  0  0  0  0  0  0  0  0  0  0  0
    4.5067   -0.1004   -2.2839 C   0  0  0  0  0  0  0  0  0  0  0  0
    4.0961    0.9262   -2.8182 O   0  0  0  0  0  0  0  0  0  0  0  0
    5.9450   -0.5292   -2.4862 C   0  0  0  0  0  0  0  0  0  0  0  0
    6.6332   -0.7102   -1.2102 C   0  0  0  0  0  0  0  0  0  0  0  0
    7.1605   -0.9121   -0.1965 N   0  0  0  0  0  0  0  0  0  0  0  0
    1.9476   -3.7057    0.7760 H   0  0  0  0  0  0  0  0  0  0  0  0
    3.3902   -2.6903    0.8100 H   0  0  0  0  0  0  0  0  0  0  0  0
    2.9956   -3.6547   -0.6434 H   0  0  0  0  0  0  0  0  0  0  0  0
   -0.0542   -2.5218    0.5329 H   0  0  0  0  0  0  0  0  0  0  0  0
   -2.3851    2.0290   -1.7470 H   0  0  0  0  0  0  0  0  0  0  0  0
   -2.3594    0.3321   -1.2991 H   0  0  0  0  0  0  0  0  0  0  0  0
   -3.9503   -0.2586    0.5160 H   0  0  0  0  0  0  0  0  0  0  0  0
   -4.3777    1.1312   -0.5101 H   0  0  0  0  0  0  0  0  0  0  0  0
   -6.2735    0.5498    1.0194 H   0  0  0  0  0  0  0  0  0  0  0  0
   -5.6465    2.1580    1.3882 H   0  0  0  0  0  0  0  0  0  0  0  0
   -3.4032   -0.1623    3.1773 H   0  0  0  0  0  0  0  0  0  0  0  0
   -3.9056    1.1112    4.2928 H   0  0  0  0  0  0  0  0  0  0  0  0
   -3.4767    2.8416    2.5164 H   0  0  0  0  0  0  0  0  0  0  0  0
   -2.0127    1.8990    2.8608 H   0  0  0  0  0  0  0  0  0  0  0  0
    1.9216    0.9553   -2.2687 H   0  0  0  0  0  0  0  0  0  0  0  0
    4.2400   -1.7821   -1.1329 H   0  0  0  0  0  0  0  0  0  0  0  0
    5.9490   -1.4579   -3.0676 H   0  0  0  0  0  0  0  0  0  0  0  0
    6.4566    0.2333   -3.0835 H   0  0  0  0  0  0  0  0  0  0  0  0
  1  2  1  0
  2  3  2  0
  3  4  1  0
  4  5  2  0
  5  6  1  0
  6  7  1  0
  7  8  1  0
  8  9  2  0
  8 10  1  0
 10 11  1  0
 11 12  1  0
 12 13  1  0
 13 14  1  0
 14 15  1  0
  5 16  1  0
 16 17  2  0
 17 18  1  0
 18 19  1  0
 19 20  2  0
 19 21  1  0
 21 22  1  0
 22 23  3  0
 17  2  1  0
 15 10  1  0
  1 24  1  0
  1 25  1  0
  1 26  1  0
  3 27  1  0
  7 28  1  0
  7 29  1  0
 11 30  1  0
 11 31  1  0
 12 32  1  0
 12 33  1  0
 14 34  1  0
 14 35  1  0
 15 36  1  0
 15 37  1  0
 16 38  1  0
 18 39  1  0
 21 40  1  0
 21 41  1  0
M  END
