LIG
     RDKit          3D

 37 38  0  0  0  0  0  0  0  0999 V2000
    0.0669    4.9976   -0.1935 C   0  0  0  0  0  0  0  0  0  0  0  0
    0.5867    3.6008   -0.0711 C   0  0  0  0  0  0  0  0  0  0  0  0
    1.9224    3.3086   -0.3145 C   0  0  0  0  0  0  0  0  0  0  0  0
    2.4683    2.0795   -0.1857 N   0  0  0  0  0  0  0  0  0  0  0  0
    1.6675    1.0717    0.2087 C   0  0  0  0  0  0  0  0  0  0  0  0
    2.1668   -0.2262    0.3562 N   0  0  0  0  0  0  0  0  0  0  0  0
    3.4833   -0.6150    0.2832 C   0  0  0  0  0  0  0  0  0  0  0  0
    4.4503    0.1147    0.0655 O   0  0  0  0  0  0  0  0  0  0  0  0
    3.7077   -2.1128    0.4460 C   0  0  0  0  0  0  0  0  0  0  0  0
    2.4948   -2.9286    1.5452 S   0  0  0  0  0  0  0  0  0  0  0  0
    0.3074    1.2722    0.4697 C   0  0  0  0  0  0  0  0  0  0  0  0
   -0.4668    0.2443    0.9441 O   0  0  0  0  0  0  0  0  0  0  0  0
   -1.4263   -0.1931   -0.0083 C   0  0  0  0  0  0  0  0  0  0  0  0
   -2.7737   -0.4128    0.6816 C   0  0  0  0  0  0  0  0  0  0  0  0
   -3.4299   -1.4936   -0.1538 C   0  0  0  0  0  0  0  0  0  0  0  0
   -2.3141   -2.2905   -0.5891 N   0  0  0  0  0  0  0  0  0  0  0  0
   -2.4798   -3.5989   -1.1743 C   0  0  0  0  0  0  0  0  0  0  0  0
   -1.1171   -1.5888   -0.5442 C   0  0  0  0  0  0  0  0  0  0  0  0
   -0.0187   -1.9975   -0.8834 O   0  0  0  0  0  0  0  0  0  0  0  0
   -0.2304    2.5535    0.3536 C   0  0  0  0  0  0  0  0  0  0  0  0
    0.6353    5.5646   -0.9411 H   0  0  0  0  0  0  0  0  0  0  0  0
   -0.9775    4.9919   -0.5192 H   0  0  0  0  0  0  0  0  0  0  0  0
    0.1384    5.5127    0.7710 H   0  0  0  0  0  0  0  0  0  0  0  0
    2.6245    4.0784   -0.6271 H   0  0  0  0  0  0  0  0  0  0  0  0
    1.4821   -0.9478    0.5663 H   0  0  0  0  0  0  0  0  0  0  0  0
    4.7069   -2.2647    0.8845 H   0  0  0  0  0  0  0  0  0  0  0  0
    3.6856   -2.5818   -0.5488 H   0  0  0  0  0  0  0  0  0  0  0  0
    3.0938   -4.1263    1.5614 H   0  0  0  0  0  0  0  0  0  0  0  0
   -1.5410    0.4717   -0.8760 H   0  0  0  0  0  0  0  0  0  0  0  0
   -2.6153   -0.7639    1.7112 H   0  0  0  0  0  0  0  0  0  0  0  0
   -3.3737    0.5004    0.7411 H   0  0  0  0  0  0  0  0  0  0  0  0
   -4.1323   -2.0920    0.4322 H   0  0  0  0  0  0  0  0  0  0  0  0
   -3.9354   -1.0842   -1.0377 H   0  0  0  0  0  0  0  0  0  0  0  0
   -1.5044   -4.0454   -1.4016 H   0  0  0  0  0  0  0  0  0  0  0  0
   -3.0646   -3.4993   -2.0965 H   0  0  0  0  0  0  0  0  0  0  0  0
   -3.0174   -4.2326   -0.4640 H   0  0  0  0  0  0  0  0  0  0  0  0
   -1.2699    2.7331    0.6084 H   0  0  0  0  0  0  0  0  0  0  0  0
  1  2  1  0
  2  3  2  0
  3  4  1  0
  4  5  2  0
  5  6  1  0
  6  7  1  0
  7  8  2  0
  7  9  1  0
  9 10  1  0
  5 11  1  0
 11 12  1  0
 12 13  1  0
 13 14  1  0
 14 15  1  0
 15 16  1  0
 16 17  1  0
 16 18  1  0
 18 19  2  0
 11 20  2  0
 20  2  1  0
 18 13  1  0
  1 21  1  0
  1 22  1  0
  1 23  1  0
  3 24  1  0
  6 25  1  0
  9 26  1  0
  9 27  1  0
 10 28  1  0
 13 29  1  0
 14 30  1  0
 14 31  1  0
 15 32  1  0
 15 33  1  0
 17 34  1  0
 17 35  1  0
 17 36  1  0
 20 37  1  0
M  END
