LIG
     RDKit          3D

 44 44  0  0  0  0  0  0  0  0999 V2000
   30.0510   12.3330    8.4300 C   0  0  0  0  0  0  0  0  0  0  0  0
   29.3000   13.3530    7.8990 C   0  0  0  0  0  0  0  0  0  0  0  0
   28.5340   14.0390    8.5970 O   0  0  0  0  0  0  0  0  0  0  0  0
   29.6746   11.2509    7.7696 N   0  0  0  0  0  0  0  0  0  0  0  0
   31.2880    9.8340    6.6350 C   0  0  0  0  0  0  0  0  0  0  0  0
   31.7330   10.8470    5.8070 C   0  0  0  0  0  0  0  0  0  0  0  0
   32.2576   12.4827    7.8997 C   0  0  0  0  0  0  0  0  0  0  0  0
   34.9080   14.6080    8.8210 N   0  0  0  0  0  0  0  0  0  0  0  0
   33.5770   13.9020    8.2740 S   0  0  0  0  0  0  0  0  0  0  0  0
   34.0500   13.6360    6.5860 C   0  0  0  0  0  0  0  0  0  0  0  0
   33.4410   12.6200    8.8870 O   0  0  0  0  0  0  0  0  0  0  0  0
   32.5040   14.8410    8.3200 O   0  0  0  0  0  0  0  0  0  0  0  0
   31.3810   12.1530    6.0670 C   0  0  0  0  0  0  0  0  0  0  0  0
   30.5900   12.4580    7.1610 C   0  0  0  0  0  0  0  0  0  0  0  0
   30.1520   11.4340    7.9910 C   0  0  0  0  0  0  0  0  0  0  0  0
   29.0034   12.3650    8.1978 O   0  0  0  0  0  0  0  0  0  0  0  0
   29.2333   13.7492    8.4066 C   0  0  0  0  0  0  0  0  0  0  0  0
   29.9260   13.8300    9.9860 C   0  0  0  0  0  0  0  0  0  0  0  0
   31.1030   13.5010    9.9720 O   0  0  0  0  0  0  0  0  0  0  0  0
   29.5320   15.0110   10.4940 N   0  0  0  0  0  0  0  0  0  0  0  0
   30.5000   15.9370   11.0760 C   0  0  0  0  0  0  0  0  0  0  0  0
   28.1410   15.4480   10.5470 C   0  0  0  0  0  0  0  0  0  0  0  0
   30.4800   10.1020    7.7350 C   0  0  0  0  0  0  0  0  0  0  0  0
   29.9390    8.9850    8.5900 Br  0  0  0  0  0  0  0  0  0  0  0  0
   29.4275   11.5882    8.9822 H   0  0  0  0  0  0  0  0  0  0  0  0
   29.9976   12.2485    9.5455 H   0  0  0  0  0  0  0  0  0  0  0  0
   30.8173   12.7006    9.1544 H   0  0  0  0  0  0  0  0  0  0  0  0
   29.3089   10.6237    8.4808 H   0  0  0  0  0  0  0  0  0  0  0  0
   31.5033   13.2783    7.9486 H   0  0  0  0  0  0  0  0  0  0  0  0
   32.1870   11.9366    8.8459 H   0  0  0  0  0  0  0  0  0  0  0  0
   35.6025   13.9123    9.1843 H   0  0  0  0  0  0  0  0  0  0  0  0
   35.0156   14.1222    6.4240 H   0  0  0  0  0  0  0  0  0  0  0  0
   34.9924   13.0844    6.5583 H   0  0  0  0  0  0  0  0  0  0  0  0
   34.1479   14.6022    6.0855 H   0  0  0  0  0  0  0  0  0  0  0  0
   31.7329   12.9635    5.4343 H   0  0  0  0  0  0  0  0  0  0  0  0
   30.3539   13.4986    7.3411 H   0  0  0  0  0  0  0  0  0  0  0  0
   28.2549   14.2386    8.4834 H   0  0  0  0  0  0  0  0  0  0  0  0
   29.7056   14.2049    7.5276 H   0  0  0  0  0  0  0  0  0  0  0  0
   31.2926   16.1849   10.3697 H   0  0  0  0  0  0  0  0  0  0  0  0
   29.9737   16.8479   11.3720 H   0  0  0  0  0  0  0  0  0  0  0  0
   30.9586   15.4749   11.9542 H   0  0  0  0  0  0  0  0  0  0  0  0
   27.4897   14.5706   10.5215 H   0  0  0  0  0  0  0  0  0  0  0  0
   27.6218   15.0420   11.4179 H   0  0  0  0  0  0  0  0  0  0  0  0
   27.6361   15.1063    9.6395 H   0  0  0  0  0  0  0  0  0  0  0  0
  1  2  1  0
  2  3  2  0
  2  4  1  0
  4  5  1  0
  5  6  4  0
  6  7  1  0
  7  8  1  0
  8  9  1  0
  9 10  1  0
  9 11  2  0
  9 12  2  0
  6 13  4  0
 13 14  4  0
 14 15  4  0
 15 16  1  0
 16 17  1  0
 17 18  1  0
 18 19  2  0
 18 20  1  0
 20 21  1  0
 20 22  1  0
 15 23  4  0
 23 24  1  0
 23  5  4  0
  1 25  1  0
  1 26  1  0
  1 27  1  0
  4 28  1  0
  7 29  1  0
  7 30  1  0
  8 31  1  0
 10 32  1  0
 10 33  1  0
 10 34  1  0
 13 35  1  0
 14 36  1  0
 17 37  1  0
 17 38  1  0
 21 39  1  0
 21 40  1  0
 21 41  1  0
 22 42  1  0
 22 43  1  0
 22 44  1  0
M  END
