LIG
     RDKit          3D

 40 41  0  0  0  0  0  0  0  0999 V2000
   35.1231    8.4729    4.2005 C   0  0  0  0  0  0  0  0  0  0  0  0
   34.5053    9.6212    4.9425 C   0  0  0  0  0  0  0  0  0  0  0  0
   34.8642   10.7668    4.6773 O   0  0  0  0  0  0  0  0  0  0  0  0
   33.5244    9.1853    5.8541 N   0  0  0  0  0  0  0  0  0  0  0  0
   32.5676    9.9911    6.5248 C   0  0  0  0  0  0  0  0  0  0  0  0
   32.4502   11.2797    6.0914 C   0  0  0  0  0  0  0  0  0  0  0  0
   31.5054   12.1278    6.6069 C   0  0  0  0  0  0  0  0  0  0  0  0
   31.2661   13.3494    6.0468 O   0  0  0  0  0  0  0  0  0  0  0  0
   32.3711   13.8539    5.3162 C   0  0  0  0  0  0  0  0  0  0  0  0
   33.5650   14.0367    6.2478 C   0  0  0  0  0  0  0  0  0  0  0  0
   33.4326   13.9761    7.4744 O   0  0  0  0  0  0  0  0  0  0  0  0
   34.7843   14.2230    5.6549 N   0  0  0  0  0  0  0  0  0  0  0  0
   35.9098   14.4085    6.5501 C   0  0  0  0  0  0  0  0  0  0  0  0
   37.1564   13.8019    5.9234 C   0  0  0  0  0  0  0  0  0  0  0  0
   37.4433   14.4794    4.6904 O   0  0  0  0  0  0  0  0  0  0  0  0
   36.3910   14.2079    3.7534 C   0  0  0  0  0  0  0  0  0  0  0  0
   35.0153   14.6421    4.2711 C   0  0  0  0  0  0  0  0  0  0  0  0
   30.6951   11.7872    7.5980 N   0  0  0  0  0  0  0  0  0  0  0  0
   30.7970   10.5309    8.0427 C   0  0  0  0  0  0  0  0  0  0  0  0
   31.6617    9.5798    7.5113 C   0  0  0  0  0  0  0  0  0  0  0  0
   31.4890    8.2194    8.0637 C   0  0  0  0  0  0  0  0  0  0  0  0
   34.3571    7.9319    3.6394 H   0  0  0  0  0  0  0  0  0  0  0  0
   35.6275    7.7999    4.8974 H   0  0  0  0  0  0  0  0  0  0  0  0
   35.8662    8.8501    3.4915 H   0  0  0  0  0  0  0  0  0  0  0  0
   33.5210    8.1868    6.0584 H   0  0  0  0  0  0  0  0  0  0  0  0
   33.0470   11.5943    5.2602 H   0  0  0  0  0  0  0  0  0  0  0  0
   32.0842   14.8129    4.8917 H   0  0  0  0  0  0  0  0  0  0  0  0
   32.5814   13.2438    4.4328 H   0  0  0  0  0  0  0  0  0  0  0  0
   35.7359   13.9523    7.5294 H   0  0  0  0  0  0  0  0  0  0  0  0
   35.9989   15.4887    6.6803 H   0  0  0  0  0  0  0  0  0  0  0  0
   37.0219   12.7307    5.7263 H   0  0  0  0  0  0  0  0  0  0  0  0
   38.0306   13.8881    6.5717 H   0  0  0  0  0  0  0  0  0  0  0  0
   36.6233   14.7360    2.8231 H   0  0  0  0  0  0  0  0  0  0  0  0
   36.3937   13.1345    3.5274 H   0  0  0  0  0  0  0  0  0  0  0  0
   34.9475   15.7288    4.2493 H   0  0  0  0  0  0  0  0  0  0  0  0
   34.2372   14.2648    3.6043 H   0  0  0  0  0  0  0  0  0  0  0  0
   30.0995   10.2843    8.8390 H   0  0  0  0  0  0  0  0  0  0  0  0
   30.4282    7.9793    8.1930 H   0  0  0  0  0  0  0  0  0  0  0  0
   31.9013    7.5140    7.3563 H   0  0  0  0  0  0  0  0  0  0  0  0
   31.9839    8.1014    9.0226 H   0  0  0  0  0  0  0  0  0  0  0  0
  1  2  1  0
  2  3  2  0
  2  4  1  0
  4  5  1  0
  5  6  2  0
  6  7  1  0
  7  8  1  0
  8  9  1  0
  9 10  1  0
 10 11  2  0
 10 12  1  0
 12 13  1  0
 13 14  1  0
 14 15  1  0
 15 16  1  0
 16 17  1  0
  7 18  2  0
 18 19  1  0
 19 20  2  0
 20 21  1  0
 20  5  1  0
 17 12  1  0
  1 22  1  0
  1 23  1  0
  1 24  1  0
  4 25  1  0
  6 26  1  0
  9 27  1  0
  9 28  1  0
 13 29  1  0
 13 30  1  0
 14 31  1  0
 14 32  1  0
 16 33  1  0
 16 34  1  0
 17 35  1  0
 17 36  1  0
 19 37  1  0
 21 38  1  0
 21 39  1  0
 21 40  1  0
M  END
