LIG
     RDKit          3D

 34 34  0  0  0  0  0  0  0  0999 V2000
   -3.4437    0.5377   -1.1882 C   0  0  0  0  0  0  0  0  0  0  0  0
   -4.1726    0.9219    0.0110 N   0  0  0  0  0  0  0  0  0  0  0  0
   -5.6041    1.1129   -0.1410 C   0  0  0  0  0  0  0  0  0  0  0  0
   -3.6633    0.7545    1.2977 C   0  0  0  0  0  0  0  0  0  0  0  0
   -4.3512    0.9305    2.3078 O   0  0  0  0  0  0  0  0  0  0  0  0
   -2.1831    0.3762    1.4430 C   0  0  0  0  0  0  0  0  0  0  0  0
   -1.9011   -0.9071    0.8944 O   0  0  0  0  0  0  0  0  0  0  0  0
   -0.5646   -1.3196    1.1227 C   0  0  0  0  0  0  0  0  0  0  0  0
    0.5316   -0.6308    0.2851 C   0  0  0  0  0  0  0  0  0  0  0  0
    0.2748    0.2403   -0.5404 O   0  0  0  0  0  0  0  0  0  0  0  0
    1.7946   -1.1118    0.5903 N   0  0  0  0  0  0  0  0  0  0  0  0
    3.0295   -0.7129    0.0306 C   0  0  0  0  0  0  0  0  0  0  0  0
    3.1727    0.2701   -0.9496 C   0  0  0  0  0  0  0  0  0  0  0  0
    4.4465    0.5827   -1.4296 C   0  0  0  0  0  0  0  0  0  0  0  0
    4.6245    1.5378   -2.3877 O   0  0  0  0  0  0  0  0  0  0  0  0
    5.5816   -0.0655   -0.9512 C   0  0  0  0  0  0  0  0  0  0  0  0
    5.4484   -1.0470    0.0263 C   0  0  0  0  0  0  0  0  0  0  0  0
    4.1800   -1.3602    0.5058 C   0  0  0  0  0  0  0  0  0  0  0  0
    4.0577   -2.3081    1.4496 F   0  0  0  0  0  0  0  0  0  0  0  0
   -3.8212    1.1078   -2.0423 H   0  0  0  0  0  0  0  0  0  0  0  0
   -2.3771    0.7432   -1.0911 H   0  0  0  0  0  0  0  0  0  0  0  0
   -3.5960   -0.5309   -1.3644 H   0  0  0  0  0  0  0  0  0  0  0  0
   -6.0645    0.1453   -0.3619 H   0  0  0  0  0  0  0  0  0  0  0  0
   -6.0580    1.5222    0.7655 H   0  0  0  0  0  0  0  0  0  0  0  0
   -5.7897    1.8060   -0.9667 H   0  0  0  0  0  0  0  0  0  0  0  0
   -1.5761    1.1574    0.9747 H   0  0  0  0  0  0  0  0  0  0  0  0
   -1.9528    0.3692    2.5155 H   0  0  0  0  0  0  0  0  0  0  0  0
   -0.3184   -1.2192    2.1868 H   0  0  0  0  0  0  0  0  0  0  0  0
   -0.5228   -2.3871    0.8773 H   0  0  0  0  0  0  0  0  0  0  0  0
    1.8676   -1.8457    1.2897 H   0  0  0  0  0  0  0  0  0  0  0  0
    2.3137    0.7970   -1.3474 H   0  0  0  0  0  0  0  0  0  0  0  0
    3.7565    1.9038   -2.6300 H   0  0  0  0  0  0  0  0  0  0  0  0
    6.5620    0.1955   -1.3405 H   0  0  0  0  0  0  0  0  0  0  0  0
    6.3184   -1.5660    0.4146 H   0  0  0  0  0  0  0  0  0  0  0  0
  1  2  1  0
  2  3  1  0
  2  4  1  0
  4  5  2  0
  4  6  1  0
  6  7  1  0
  7  8  1  0
  8  9  1  0
  9 10  2  0
  9 11  1  0
 11 12  1  0
 12 13  2  0
 13 14  1  0
 14 15  1  0
 14 16  2  0
 16 17  1  0
 17 18  2  0
 18 19  1  0
 18 12  1  0
  1 20  1  0
  1 21  1  0
  1 22  1  0
  3 23  1  0
  3 24  1  0
  3 25  1  0
  6 26  1  0
  6 27  1  0
  8 28  1  0
  8 29  1  0
 11 30  1  0
 13 31  1  0
 15 32  1  0
 16 33  1  0
 17 34  1  0
M  END
