LIG
     RDKit          3D

 37 38  0  0  0  0  0  0  0  0999 V2000
   30.9122    8.3129    8.1189 C   0  0  0  0  0  0  0  0  0  0  0  0
   31.4887    9.5089    7.4585 C   0  0  0  0  0  0  0  0  0  0  0  0
   32.5288    9.4512    6.5425 C   0  0  0  0  0  0  0  0  0  0  0  0
   33.1650   10.5384    6.0631 N   0  0  0  0  0  0  0  0  0  0  0  0
   32.7650   11.7205    6.5648 C   0  0  0  0  0  0  0  0  0  0  0  0
   33.6714   12.7699    6.4231 N   0  0  0  0  0  0  0  0  0  0  0  0
   34.1754   13.3821    7.5637 C   0  0  0  0  0  0  0  0  0  0  0  0
   33.8449   13.0914    8.7193 O   0  0  0  0  0  0  0  0  0  0  0  0
   35.1996   14.4698    7.3158 C   0  0  0  0  0  0  0  0  0  0  0  0
   35.6805   14.6465    5.5764 S   0  0  0  0  0  0  0  0  0  0  0  0
   31.6170   11.8928    7.3359 C   0  0  0  0  0  0  0  0  0  0  0  0
   31.1680   13.1675    7.5586 O   0  0  0  0  0  0  0  0  0  0  0  0
   30.2335   13.2637    8.6128 C   0  0  0  0  0  0  0  0  0  0  0  0
   28.8143   12.9035    8.1525 C   0  0  0  0  0  0  0  0  0  0  0  0
   28.3073   14.1932    7.5947 C   0  0  0  0  0  0  0  0  0  0  0  0
   28.8770   15.1313    8.5080 N   0  0  0  0  0  0  0  0  0  0  0  0
   28.5376   16.4911    8.3962 C   0  0  0  0  0  0  0  0  0  0  0  0
   30.0764   14.6991    9.0458 C   0  0  0  0  0  0  0  0  0  0  0  0
   30.8634   15.3697    9.6974 O   0  0  0  0  0  0  0  0  0  0  0  0
   31.0061   10.7500    7.8198 C   0  0  0  0  0  0  0  0  0  0  0  0
   31.2240    7.4422    7.5573 H   0  0  0  0  0  0  0  0  0  0  0  0
   29.8189    8.3474    8.1355 H   0  0  0  0  0  0  0  0  0  0  0  0
   31.2757    8.2228    9.1446 H   0  0  0  0  0  0  0  0  0  0  0  0
   32.9354    8.5033    6.2035 H   0  0  0  0  0  0  0  0  0  0  0  0
   34.3910   12.5945    5.7296 H   0  0  0  0  0  0  0  0  0  0  0  0
   36.0910   14.2426    7.9065 H   0  0  0  0  0  0  0  0  0  0  0  0
   34.7682   15.4082    7.6594 H   0  0  0  0  0  0  0  0  0  0  0  0
   35.6371   15.9946    5.5427 H   0  0  0  0  0  0  0  0  0  0  0  0
   30.5739   12.7260    9.4835 H   0  0  0  0  0  0  0  0  0  0  0  0
   28.7382   12.1106    7.4058 H   0  0  0  0  0  0  0  0  0  0  0  0
   28.2124   12.6451    9.0270 H   0  0  0  0  0  0  0  0  0  0  0  0
   28.6904   14.3859    6.5864 H   0  0  0  0  0  0  0  0  0  0  0  0
   27.2193   14.2567    7.6012 H   0  0  0  0  0  0  0  0  0  0  0  0
   29.2728   17.1462    8.8292 H   0  0  0  0  0  0  0  0  0  0  0  0
   28.4973   16.7367    7.3405 H   0  0  0  0  0  0  0  0  0  0  0  0
   27.5934   16.5895    8.9243 H   0  0  0  0  0  0  0  0  0  0  0  0
   30.1734   10.7669    8.5123 H   0  0  0  0  0  0  0  0  0  0  0  0
  1  2  1  0
  2  3  2  0
  3  4  1  0
  4  5  2  0
  5  6  1  0
  6  7  1  0
  7  8  2  0
  7  9  1  0
  9 10  1  0
  5 11  1  0
 11 12  1  0
 12 13  1  0
 13 14  1  0
 14 15  1  0
 15 16  1  0
 16 17  1  0
 16 18  1  0
 18 19  2  0
 11 20  2  0
 20  2  1  0
 18 13  1  0
  1 21  1  0
  1 22  1  0
  1 23  1  0
  3 24  1  0
  6 25  1  0
  9 26  1  0
  9 27  1  0
 10 28  1  0
 13 29  1  0
 14 30  1  0
 14 31  1  0
 15 32  1  0
 15 33  1  0
 17 34  1  0
 17 35  1  0
 17 36  1  0
 20 37  1  0
M  END
