LIG
     RDKit          3D

 45 47  0  0  0  0  0  0  0  0999 V2000
   32.7572    8.0286    6.6932 C   0  0  0  0  0  0  0  0  0  0  0  0
   32.2980    9.4490    6.8970 C   0  0  0  0  0  0  0  0  0  0  0  0
   31.3020    9.7050    7.8000 C   0  0  0  0  0  0  0  0  0  0  0  0
   30.8090   10.9600    8.0540 C   0  0  0  0  0  0  0  0  0  0  0  0
   31.3600   12.0190    7.3410 C   0  0  0  0  0  0  0  0  0  0  0  0
   30.9510   13.3300    7.5050 O   0  0  0  0  0  0  0  0  0  0  0  0
   30.0580   13.6540    8.5870 C   0  0  0  0  0  0  0  0  0  0  0  0
   28.5940   13.4330    8.1660 C   0  0  0  0  0  0  0  0  0  0  0  0
   27.8900   14.7750    8.3110 C   0  0  0  0  0  0  0  0  0  0  0  0
   28.8690   15.5850    9.0100 N   0  0  0  0  0  0  0  0  0  0  0  0
   28.4820   16.7650    9.7690 C   0  0  0  0  0  0  0  0  0  0  0  0
   30.1260   15.1410    8.9140 C   0  0  0  0  0  0  0  0  0  0  0  0
   31.1310   15.8110    9.0820 O   0  0  0  0  0  0  0  0  0  0  0  0
   32.3710   11.8060    6.4170 C   0  0  0  0  0  0  0  0  0  0  0  0
   32.8360   10.5190    6.2010 C   0  0  0  0  0  0  0  0  0  0  0  0
   33.3300   11.7430    4.6780 N   0  0  0  0  0  0  0  0  0  0  0  0
   33.5900   13.0680    4.7540 C   0  0  0  0  0  0  0  0  0  0  0  0
   33.4420   13.7460    5.7670 O   0  0  0  0  0  0  0  0  0  0  0  0
   34.1200   13.7080    3.4770 C   0  0  0  0  0  0  0  0  0  0  0  0
   33.0230   14.1560    2.5380 C   0  0  0  0  0  0  0  0  0  0  0  0
   33.7650   14.2490    1.2210 C   0  0  0  0  0  0  0  0  0  0  0  0
   34.7960   13.1450    1.3220 C   0  0  0  0  0  0  0  0  0  0  0  0
   34.9020   12.7780    2.7050 O   0  0  0  0  0  0  0  0  0  0  0  0
   32.5602    7.7096    5.6652 H   0  0  0  0  0  0  0  0  0  0  0  0
   33.8261    7.9374    6.9093 H   0  0  0  0  0  0  0  0  0  0  0  0
   32.2299    7.3351    7.3579 H   0  0  0  0  0  0  0  0  0  0  0  0
   30.8465    8.8577    8.3704 H   0  0  0  0  0  0  0  0  0  0  0  0
   30.0290   11.1266    8.7686 H   0  0  0  0  0  0  0  0  0  0  0  0
   30.3139   13.0850    9.5126 H   0  0  0  0  0  0  0  0  0  0  0  0
   28.4749   13.0341    7.1389 H   0  0  0  0  0  0  0  0  0  0  0  0
   28.1263   12.6963    8.8519 H   0  0  0  0  0  0  0  0  0  0  0  0
   26.9715   14.7035    8.8921 H   0  0  0  0  0  0  0  0  0  0  0  0
   27.6907   15.2319    7.3395 H   0  0  0  0  0  0  0  0  0  0  0  0
   27.3971   16.8891    9.7314 H   0  0  0  0  0  0  0  0  0  0  0  0
   27.8042   16.4643   10.5693 H   0  0  0  0  0  0  0  0  0  0  0  0
   28.7911   16.6305   10.8083 H   0  0  0  0  0  0  0  0  0  0  0  0
   32.7951   12.6339    5.8813 H   0  0  0  0  0  0  0  0  0  0  0  0
   33.2698   11.1686    3.9299 H   0  0  0  0  0  0  0  0  0  0  0  0
   34.7679   14.5434    3.7644 H   0  0  0  0  0  0  0  0  0  0  0  0
   32.1564   13.4916    2.4889 H   0  0  0  0  0  0  0  0  0  0  0  0
   32.6723   15.1549    2.8222 H   0  0  0  0  0  0  0  0  0  0  0  0
   33.0710   14.0428    0.3909 H   0  0  0  0  0  0  0  0  0  0  0  0
   34.2124   15.2344    1.0381 H   0  0  0  0  0  0  0  0  0  0  0  0
   35.7837   13.4943    0.9932 H   0  0  0  0  0  0  0  0  0  0  0  0
   34.5308   12.2617    0.7293 H   0  0  0  0  0  0  0  0  0  0  0  0
  1  2  1  0
  2  3  4  0
  3  4  4  0
  4  5  4  0
  5  6  1  0
  6  7  1  0
  7  8  1  0
  8  9  1  0
  9 10  1  0
 10 11  1  0
 10 12  1  0
 12 13  2  0
  5 14  4  0
 14 15  4  0
 15 16  1  0
 16 17  1  0
 17 18  2  0
 17 19  1  0
 19 20  1  0
 20 21  1  0
 21 22  1  0
 22 23  1  0
 15  2  4  0
 23 19  1  0
 12  7  1  0
  1 24  1  0
  1 25  1  0
  1 26  1  0
  3 27  1  0
  4 28  1  0
  7 29  1  0
  8 30  1  0
  8 31  1  0
  9 32  1  0
  9 33  1  0
 11 34  1  0
 11 35  1  0
 11 36  1  0
 14 37  1  0
 16 38  1  0
 19 39  1  0
 20 40  1  0
 20 41  1  0
 21 42  1  0
 21 43  1  0
 22 44  1  0
 22 45  1  0
M  END
