LIG
     RDKit          3D

 41 41  0  0  0  0  0  0  0  0999 V2000
    4.8801   -1.2636    2.0298 C   0  0  0  0  0  0  0  0  0  0  0  0
    3.9178   -2.0658    1.1887 C   0  0  0  0  0  0  0  0  0  0  0  0
    4.0374   -3.2824    1.0905 O   0  0  0  0  0  0  0  0  0  0  0  0
    2.9449   -1.2708    0.6178 N   0  0  0  0  0  0  0  0  0  0  0  0
    1.8833   -1.6259   -0.2402 C   0  0  0  0  0  0  0  0  0  0  0  0
    1.7453   -2.9550   -0.6851 C   0  0  0  0  0  0  0  0  0  0  0  0
    0.7198   -3.3454   -1.5508 C   0  0  0  0  0  0  0  0  0  0  0  0
   -0.2017   -2.4118   -1.9908 C   0  0  0  0  0  0  0  0  0  0  0  0
   -0.0959   -1.0967   -1.5423 C   0  0  0  0  0  0  0  0  0  0  0  0
   -0.9994   -0.1756   -2.0240 O   0  0  0  0  0  0  0  0  0  0  0  0
   -2.2641   -0.2727   -1.3562 C   0  0  0  0  0  0  0  0  0  0  0  0
   -2.5409    1.0237   -0.5843 C   0  0  0  0  0  0  0  0  0  0  0  0
   -1.6696    1.8964   -0.4971 O   0  0  0  0  0  0  0  0  0  0  0  0
   -3.7879    1.1594    0.0197 N   0  0  0  0  0  0  0  0  0  0  0  0
   -4.9007    0.2442   -0.1872 C   0  0  0  0  0  0  0  0  0  0  0  0
   -4.1153    2.4232    0.6622 C   0  0  0  0  0  0  0  0  0  0  0  0
    0.9443   -0.6629   -0.6818 C   0  0  0  0  0  0  0  0  0  0  0  0
    0.8869    0.7261   -0.3679 N   0  0  0  0  0  0  0  0  0  0  0  0
    1.6667    1.5356    0.4201 C   0  0  0  0  0  0  0  0  0  0  0  0
    2.6588    1.1989    1.0658 O   0  0  0  0  0  0  0  0  0  0  0  0
    1.1813    2.9912    0.4643 C   0  0  0  0  0  0  0  0  0  0  0  0
    2.1671    3.8624    1.0047 O   0  0  0  0  0  0  0  0  0  0  0  0
    5.7633   -1.8694    2.2528 H   0  0  0  0  0  0  0  0  0  0  0  0
    4.3951   -0.9764    2.9667 H   0  0  0  0  0  0  0  0  0  0  0  0
    5.2070   -0.3696    1.4908 H   0  0  0  0  0  0  0  0  0  0  0  0
    2.9893   -0.2845    0.8668 H   0  0  0  0  0  0  0  0  0  0  0  0
    2.4453   -3.7283   -0.3823 H   0  0  0  0  0  0  0  0  0  0  0  0
    0.6610   -4.3784   -1.8845 H   0  0  0  0  0  0  0  0  0  0  0  0
   -0.9850   -2.7014   -2.6842 H   0  0  0  0  0  0  0  0  0  0  0  0
   -3.0249   -0.3940   -2.1338 H   0  0  0  0  0  0  0  0  0  0  0  0
   -2.3148   -1.1159   -0.6558 H   0  0  0  0  0  0  0  0  0  0  0  0
   -5.5279    0.6378   -0.9922 H   0  0  0  0  0  0  0  0  0  0  0  0
   -4.5632   -0.7582   -0.4552 H   0  0  0  0  0  0  0  0  0  0  0  0
   -5.4870    0.1749    0.7340 H   0  0  0  0  0  0  0  0  0  0  0  0
   -4.7600    2.9982   -0.0095 H   0  0  0  0  0  0  0  0  0  0  0  0
   -4.6462    2.2224    1.5976 H   0  0  0  0  0  0  0  0  0  0  0  0
   -3.2224    3.0125    0.8871 H   0  0  0  0  0  0  0  0  0  0  0  0
    0.0847    1.1984   -0.7955 H   0  0  0  0  0  0  0  0  0  0  0  0
    0.9378    3.3371   -0.5443 H   0  0  0  0  0  0  0  0  0  0  0  0
    0.2911    3.0451    1.0974 H   0  0  0  0  0  0  0  0  0  0  0  0
    2.6988    3.3172    1.6172 H   0  0  0  0  0  0  0  0  0  0  0  0
  1  2  1  0
  2  3  2  0
  2  4  1  0
  4  5  1  0
  5  6  2  0
  6  7  1  0
  7  8  2  0
  8  9  1  0
  9 10  1  0
 10 11  1  0
 11 12  1  0
 12 13  2  0
 12 14  1  0
 14 15  1  0
 14 16  1  0
  9 17  2  0
 17 18  1  0
 18 19  1  0
 19 20  2  0
 19 21  1  0
 21 22  1  0
 17  5  1  0
  1 23  1  0
  1 24  1  0
  1 25  1  0
  4 26  1  0
  6 27  1  0
  7 28  1  0
  8 29  1  0
 11 30  1  0
 11 31  1  0
 15 32  1  0
 15 33  1  0
 15 34  1  0
 16 35  1  0
 16 36  1  0
 16 37  1  0
 18 38  1  0
 21 39  1  0
 21 40  1  0
 22 41  1  0
M  END
