LIG
     RDKit          3D

 38 39  0  0  0  0  0  0  0  0999 V2000
   31.1860    8.0690    8.4070 C   0  0  0  0  0  0  0  0  0  0  0  0
   31.7660    9.0980    7.4680 C   0  0  0  0  0  0  0  0  0  0  0  0
   32.7340    8.7720    6.5300 C   0  0  0  0  0  0  0  0  0  0  0  0
   33.2630    9.6380    5.6520 C   0  0  0  0  0  0  0  0  0  0  0  0
   32.8210   10.9050    5.6820 C   0  0  0  0  0  0  0  0  0  0  0  0
   33.3300   11.7430    4.6780 N   0  0  0  0  0  0  0  0  0  0  0  0
   33.5900   13.0680    4.7540 C   0  0  0  0  0  0  0  0  0  0  0  0
   33.4420   13.7460    5.7670 O   0  0  0  0  0  0  0  0  0  0  0  0
   34.1200   13.7080    3.4770 C   0  0  0  0  0  0  0  0  0  0  0  0
   33.0230   14.1560    2.5380 C   0  0  0  0  0  0  0  0  0  0  0  0
   33.7650   14.2490    1.2210 C   0  0  0  0  0  0  0  0  0  0  0  0
   34.7960   13.1450    1.3220 C   0  0  0  0  0  0  0  0  0  0  0  0
   34.9020   12.7780    2.7050 O   0  0  0  0  0  0  0  0  0  0  0  0
   31.8610   11.3420    6.6030 C   0  0  0  0  0  0  0  0  0  0  0  0
   31.3460   10.4150    7.4890 C   0  0  0  0  0  0  0  0  0  0  0  0
   30.3770   11.5810    8.3040 N   0  0  0  0  0  0  0  0  0  0  0  0
   29.7090   12.5130    7.5840 C   0  0  0  0  0  0  0  0  0  0  0  0
   29.9180   12.6920    6.3980 O   0  0  0  0  0  0  0  0  0  0  0  0
   28.7130   13.3600    8.3510 C   0  0  0  0  0  0  0  0  0  0  0  0
   28.5830   14.6820    7.7450 C   0  0  0  0  0  0  0  0  0  0  0  0
   28.5580   15.7160    7.2730 N   0  0  0  0  0  0  0  0  0  0  0  0
   31.8294    7.1848    8.4431 H   0  0  0  0  0  0  0  0  0  0  0  0
   31.1012    8.4557    9.4277 H   0  0  0  0  0  0  0  0  0  0  0  0
   31.8998    7.8395    9.2040 H   0  0  0  0  0  0  0  0  0  0  0  0
   33.1015    7.7107    6.4988 H   0  0  0  0  0  0  0  0  0  0  0  0
   34.0183    9.2939    4.9518 H   0  0  0  0  0  0  0  0  0  0  0  0
   33.4736   11.3267    3.7581 H   0  0  0  0  0  0  0  0  0  0  0  0
   34.7721   14.5327    3.7431 H   0  0  0  0  0  0  0  0  0  0  0  0
   32.5656   15.1007    2.8361 H   0  0  0  0  0  0  0  0  0  0  0  0
   32.2303   13.4054    2.4599 H   0  0  0  0  0  0  0  0  0  0  0  0
   34.2672   15.2262    1.1516 H   0  0  0  0  0  0  0  0  0  0  0  0
   33.1117   14.1459    0.3442 H   0  0  0  0  0  0  0  0  0  0  0  0
   34.4805   12.2533    0.7606 H   0  0  0  0  0  0  0  0  0  0  0  0
   35.7811   13.4528    0.9468 H   0  0  0  0  0  0  0  0  0  0  0  0
   31.5632   12.3614    6.5947 H   0  0  0  0  0  0  0  0  0  0  0  0
   30.3784   11.4053    9.2076 H   0  0  0  0  0  0  0  0  0  0  0  0
   27.7475   12.8410    8.3744 H   0  0  0  0  0  0  0  0  0  0  0  0
   29.0538   13.4425    9.3896 H   0  0  0  0  0  0  0  0  0  0  0  0
  1  2  1  0
  2  3  4  0
  3  4  4  0
  4  5  4  0
  5  6  1  0
  6  7  1  0
  7  8  2  0
  7  9  1  0
  9 10  1  0
 10 11  1  0
 11 12  1  0
 12 13  1  0
  5 14  4  0
 14 15  4  0
 15 16  1  0
 16 17  1  0
 17 18  2  0
 17 19  1  0
 19 20  1  0
 20 21  3  0
 15  2  4  0
 13  9  1  0
  1 22  1  0
  1 23  1  0
  1 24  1  0
  3 25  1  0
  4 26  1  0
  6 27  1  0
  9 28  1  0
 10 29  1  0
 10 30  1  0
 11 31  1  0
 11 32  1  0
 12 33  1  0
 12 34  1  0
 14 35  1  0
 16 36  1  0
 19 37  1  0
 19 38  1  0
M  END
$$$$
