LIG
     RDKit          3D

 38 39  0  0  0  0  0  0  0  0999 V2000
   -0.0783    4.5023    0.2441 C   0  0  0  0  0  0  0  0  0  0  0  0
    0.2099    3.0246    0.2251 C   0  0  0  0  0  0  0  0  0  0  0  0
    1.4588    2.6015   -0.2580 C   0  0  0  0  0  0  0  0  0  0  0  0
    1.7919    1.2468   -0.3090 C   0  0  0  0  0  0  0  0  0  0  0  0
    0.8822    0.2881    0.1213 C   0  0  0  0  0  0  0  0  0  0  0  0
    1.1368   -1.0950    0.1045 N   0  0  0  0  0  0  0  0  0  0  0  0
    2.2554   -1.7598   -0.3698 C   0  0  0  0  0  0  0  0  0  0  0  0
    3.2582   -1.2499   -0.8593 O   0  0  0  0  0  0  0  0  0  0  0  0
    2.1316   -3.2841   -0.1575 C   0  0  0  0  0  0  0  0  0  0  0  0
    2.7558   -4.0859   -1.2873 C   0  0  0  0  0  0  0  0  0  0  0  0
    1.5808   -4.3000   -2.2097 C   0  0  0  0  0  0  0  0  0  0  0  0
    0.4425   -4.4847   -1.2319 C   0  0  0  0  0  0  0  0  0  0  0  0
    0.7482   -3.6832   -0.0808 O   0  0  0  0  0  0  0  0  0  0  0  0
   -0.3663    0.7037    0.6080 C   0  0  0  0  0  0  0  0  0  0  0  0
   -0.7202    2.0596    0.6659 C   0  0  0  0  0  0  0  0  0  0  0  0
   -1.9749    2.5004    1.1587 N   0  0  0  0  0  0  0  0  0  0  0  0
   -3.0453    1.7249    1.5827 C   0  0  0  0  0  0  0  0  0  0  0  0
   -3.1012    0.4986    1.5923 O   0  0  0  0  0  0  0  0  0  0  0  0
   -4.2119    2.5417    2.0926 C   0  0  0  0  0  0  0  0  0  0  0  0
   -4.9463    3.1347    0.9779 C   0  0  0  0  0  0  0  0  0  0  0  0
   -5.5125    3.6511    0.1065 N   0  0  0  0  0  0  0  0  0  0  0  0
   -0.2663    4.8395    1.2686 H   0  0  0  0  0  0  0  0  0  0  0  0
   -0.9462    4.7281   -0.3839 H   0  0  0  0  0  0  0  0  0  0  0  0
    0.7649    5.0850   -0.1422 H   0  0  0  0  0  0  0  0  0  0  0  0
    2.1925    3.3270   -0.6048 H   0  0  0  0  0  0  0  0  0  0  0  0
    2.7712    0.9759   -0.6906 H   0  0  0  0  0  0  0  0  0  0  0  0
    0.3903   -1.7127    0.4191 H   0  0  0  0  0  0  0  0  0  0  0  0
    2.6112   -3.5096    0.8015 H   0  0  0  0  0  0  0  0  0  0  0  0
    3.0969   -5.0558   -0.9052 H   0  0  0  0  0  0  0  0  0  0  0  0
    3.6020   -3.6014   -1.7815 H   0  0  0  0  0  0  0  0  0  0  0  0
    1.7032   -5.1495   -2.8867 H   0  0  0  0  0  0  0  0  0  0  0  0
    1.4137   -3.4007   -2.8141 H   0  0  0  0  0  0  0  0  0  0  0  0
    0.3682   -5.5264   -0.9021 H   0  0  0  0  0  0  0  0  0  0  0  0
   -0.5224   -4.1799   -1.6465 H   0  0  0  0  0  0  0  0  0  0  0  0
   -1.0575   -0.0616    0.9441 H   0  0  0  0  0  0  0  0  0  0  0  0
   -2.1135    3.5029    1.1538 H   0  0  0  0  0  0  0  0  0  0  0  0
   -4.8648    1.8884    2.6816 H   0  0  0  0  0  0  0  0  0  0  0  0
   -3.8383    3.3154    2.7726 H   0  0  0  0  0  0  0  0  0  0  0  0
  1  2  1  0
  2  3  2  0
  3  4  1  0
  4  5  2  0
  5  6  1  0
  6  7  1  0
  7  8  2  0
  7  9  1  0
  9 10  1  0
 10 11  1  0
 11 12  1  0
 12 13  1  0
  5 14  1  0
 14 15  2  0
 15 16  1  0
 16 17  1  0
 17 18  2  0
 17 19  1  0
 19 20  1  0
 20 21  3  0
 15  2  1  0
 13  9  1  0
  1 22  1  0
  1 23  1  0
  1 24  1  0
  3 25  1  0
  4 26  1  0
  6 27  1  0
  9 28  1  0
 10 29  1  0
 10 30  1  0
 11 31  1  0
 11 32  1  0
 12 33  1  0
 12 34  1  0
 14 35  1  0
 16 36  1  0
 19 37  1  0
 19 38  1  0
M  END
