LIG
     RDKit          3D

 37 38  0  0  0  0  0  0  0  0999 V2000
   35.4321    9.0945    3.6604 C   0  0  0  0  0  0  0  0  0  0  0  0
   34.4129   10.1933    3.6688 C   0  0  0  0  0  0  0  0  0  0  0  0
   34.6193   11.3019    3.1797 O   0  0  0  0  0  0  0  0  0  0  0  0
   33.2117    9.8882    4.3031 N   0  0  0  0  0  0  0  0  0  0  0  0
   33.2940   10.0976    5.7070 C   0  0  0  0  0  0  0  0  0  0  0  0
   34.0760    9.2668    6.4958 C   0  0  0  0  0  0  0  0  0  0  0  0
   34.7604    9.8758    7.5144 C   0  0  0  0  0  0  0  0  0  0  0  0
   34.6558   11.1990    7.7638 N   0  0  0  0  0  0  0  0  0  0  0  0
   33.7222   11.9113    7.0968 C   0  0  0  0  0  0  0  0  0  0  0  0
   33.7066   13.2200    7.4248 O   0  0  0  0  0  0  0  0  0  0  0  0
   32.6037   14.0086    6.9964 C   0  0  0  0  0  0  0  0  0  0  0  0
   33.1556   15.4059    7.0818 C   0  0  0  0  0  0  0  0  0  0  0  0
   32.8014   16.1508    7.9960 O   0  0  0  0  0  0  0  0  0  0  0  0
   34.0862   15.7970    6.1236 N   0  0  0  0  0  0  0  0  0  0  0  0
   34.9426   16.9371    6.4391 C   0  0  0  0  0  0  0  0  0  0  0  0
   36.3594   16.4387    6.7543 C   0  0  0  0  0  0  0  0  0  0  0  0
   36.8911   15.6990    5.6383 O   0  0  0  0  0  0  0  0  0  0  0  0
   36.0774   14.5426    5.3671 C   0  0  0  0  0  0  0  0  0  0  0  0
   34.6339   14.9551    5.0490 C   0  0  0  0  0  0  0  0  0  0  0  0
   32.9426   11.3690    6.1164 C   0  0  0  0  0  0  0  0  0  0  0  0
   34.9739    8.1225    3.8628 H   0  0  0  0  0  0  0  0  0  0  0  0
   36.2046    9.3013    4.4051 H   0  0  0  0  0  0  0  0  0  0  0  0
   35.8904    9.0463    2.6682 H   0  0  0  0  0  0  0  0  0  0  0  0
   32.5348   10.5360    3.9102 H   0  0  0  0  0  0  0  0  0  0  0  0
   34.2919    8.2387    6.2316 H   0  0  0  0  0  0  0  0  0  0  0  0
   35.4583    9.3308    8.1436 H   0  0  0  0  0  0  0  0  0  0  0  0
   32.2451   13.8533    5.9775 H   0  0  0  0  0  0  0  0  0  0  0  0
   31.7726   13.8967    7.6995 H   0  0  0  0  0  0  0  0  0  0  0  0
   34.5536   17.5251    7.2753 H   0  0  0  0  0  0  0  0  0  0  0  0
   34.9603   17.5772    5.5493 H   0  0  0  0  0  0  0  0  0  0  0  0
   36.3737   15.8026    7.6473 H   0  0  0  0  0  0  0  0  0  0  0  0
   37.0237   17.2899    6.9320 H   0  0  0  0  0  0  0  0  0  0  0  0
   36.1233   13.8706    6.2310 H   0  0  0  0  0  0  0  0  0  0  0  0
   36.5151   14.0204    4.5107 H   0  0  0  0  0  0  0  0  0  0  0  0
   34.0168   14.0781    4.8536 H   0  0  0  0  0  0  0  0  0  0  0  0
   34.6249   15.5742    4.1438 H   0  0  0  0  0  0  0  0  0  0  0  0
   32.2808   11.9591    5.5026 H   0  0  0  0  0  0  0  0  0  0  0  0
  1  2  1  0
  2  3  2  0
  2  4  1  0
  4  5  1  0
  5  6  2  0
  6  7  1  0
  7  8  2  0
  8  9  1  0
  9 10  1  0
 10 11  1  0
 11 12  1  0
 12 13  2  0
 12 14  1  0
 14 15  1  0
 15 16  1  0
 16 17  1  0
 17 18  1  0
 18 19  1  0
  9 20  2  0
 20  5  1  0
 19 14  1  0
  1 21  1  0
  1 22  1  0
  1 23  1  0
  4 24  1  0
  6 25  1  0
  7 26  1  0
 11 27  1  0
 11 28  1  0
 15 29  1  0
 15 30  1  0
 16 31  1  0
 16 32  1  0
 18 33  1  0
 18 34  1  0
 19 35  1  0
 19 36  1  0
 20 37  1  0
M  END
