LIG
     RDKit          3D

 41 42  0  0  0  0  0  0  0  0999 V2000
   35.1842    8.3650    4.1669 C   0  0  0  0  0  0  0  0  0  0  0  0
   34.5885    9.4833    4.9684 C   0  0  0  0  0  0  0  0  0  0  0  0
   34.9675   10.6360    4.7660 O   0  0  0  0  0  0  0  0  0  0  0  0
   33.6086    9.0206    5.8678 N   0  0  0  0  0  0  0  0  0  0  0  0
   32.6200    9.8142    6.4900 C   0  0  0  0  0  0  0  0  0  0  0  0
   32.4413   11.0332    5.9361 C   0  0  0  0  0  0  0  0  0  0  0  0
   31.4666   11.8705    6.4113 C   0  0  0  0  0  0  0  0  0  0  0  0
   31.3683   12.9816    5.6628 O   0  0  0  0  0  0  0  0  0  0  0  0
   32.1827   13.8761    6.3149 C   0  0  0  0  0  0  0  0  0  0  0  0
   33.5116   13.7207    7.0481 C   0  0  0  0  0  0  0  0  0  0  0  0
   33.4915   13.5640    8.2737 O   0  0  0  0  0  0  0  0  0  0  0  0
   34.6653   13.8688    6.3104 N   0  0  0  0  0  0  0  0  0  0  0  0
   35.8752   14.0892    7.0767 C   0  0  0  0  0  0  0  0  0  0  0  0
   37.0877   13.6251    6.2849 C   0  0  0  0  0  0  0  0  0  0  0  0
   37.1900   14.3943    5.0772 O   0  0  0  0  0  0  0  0  0  0  0  0
   36.0735   14.0709    4.2362 C   0  0  0  0  0  0  0  0  0  0  0  0
   34.7250   14.3338    4.9187 C   0  0  0  0  0  0  0  0  0  0  0  0
   30.6730   11.6276    7.5060 C   0  0  0  0  0  0  0  0  0  0  0  0
   30.8132   10.3965    8.0776 C   0  0  0  0  0  0  0  0  0  0  0  0
   31.7162    9.4624    7.5237 C   0  0  0  0  0  0  0  0  0  0  0  0
   31.5496    8.1167    8.1052 C   0  0  0  0  0  0  0  0  0  0  0  0
   34.4008    7.8316    3.6226 H   0  0  0  0  0  0  0  0  0  0  0  0
   35.7246    7.6778    4.8220 H   0  0  0  0  0  0  0  0  0  0  0  0
   35.8908    8.7714    3.4370 H   0  0  0  0  0  0  0  0  0  0  0  0
   33.6186    8.0217    6.0727 H   0  0  0  0  0  0  0  0  0  0  0  0
   32.9786   11.3733    5.0599 H   0  0  0  0  0  0  0  0  0  0  0  0
   31.5406   14.2173    7.1361 H   0  0  0  0  0  0  0  0  0  0  0  0
   32.3360   14.6455    5.5623 H   0  0  0  0  0  0  0  0  0  0  0  0
   35.9044   15.1650    7.2676 H   0  0  0  0  0  0  0  0  0  0  0  0
   35.8386   13.5824    8.0447 H   0  0  0  0  0  0  0  0  0  0  0  0
   38.0130   13.7467    6.8532 H   0  0  0  0  0  0  0  0  0  0  0  0
   37.0155   12.5620    6.0288 H   0  0  0  0  0  0  0  0  0  0  0  0
   36.1523   14.6703    3.3235 H   0  0  0  0  0  0  0  0  0  0  0  0
   36.1548   13.0187    3.9391 H   0  0  0  0  0  0  0  0  0  0  0  0
   33.9256   13.8715    4.3317 H   0  0  0  0  0  0  0  0  0  0  0  0
   34.5417   15.4080    4.9469 H   0  0  0  0  0  0  0  0  0  0  0  0
   29.9356   12.3364    7.8652 H   0  0  0  0  0  0  0  0  0  0  0  0
   30.1603   10.1197    8.9024 H   0  0  0  0  0  0  0  0  0  0  0  0
   32.0681    8.0102    9.0517 H   0  0  0  0  0  0  0  0  0  0  0  0
   30.4898    7.8835    8.2584 H   0  0  0  0  0  0  0  0  0  0  0  0
   31.9349    7.4160    7.3828 H   0  0  0  0  0  0  0  0  0  0  0  0
  1  2  1  0
  2  3  2  0
  2  4  1  0
  4  5  1  0
  5  6  2  0
  6  7  1  0
  7  8  1  0
  8  9  1  0
  9 10  1  0
 10 11  2  0
 10 12  1  0
 12 13  1  0
 13 14  1  0
 14 15  1  0
 15 16  1  0
 16 17  1  0
  7 18  2  0
 18 19  1  0
 19 20  2  0
 20 21  1  0
 20  5  1  0
 17 12  1  0
  1 22  1  0
  1 23  1  0
  1 24  1  0
  4 25  1  0
  6 26  1  0
  9 27  1  0
  9 28  1  0
 13 29  1  0
 13 30  1  0
 14 31  1  0
 14 32  1  0
 16 33  1  0
 16 34  1  0
 17 35  1  0
 17 36  1  0
 18 37  1  0
 19 38  1  0
 21 39  1  0
 21 40  1  0
 21 41  1  0
M  END
