LIG
     RDKit          3D

 27 27  0  0  0  0  0  0  0  0999 V2000
   -1.0701   -3.8811    1.8721 N   0  0  0  0  0  0  0  0  0  0  0  0
   -1.6333   -3.2070    1.1129 C   0  0  0  0  0  0  0  0  0  0  0  0
   -2.3245   -2.3782    0.1272 C   0  0  0  0  0  0  0  0  0  0  0  0
   -2.2892   -0.9260    0.5515 C   0  0  0  0  0  0  0  0  0  0  0  0
   -3.2333   -0.4317    1.1615 O   0  0  0  0  0  0  0  0  0  0  0  0
   -1.1246   -0.2794    0.1788 N   0  0  0  0  0  0  0  0  0  0  0  0
   -0.7319    1.0593    0.3939 C   0  0  0  0  0  0  0  0  0  0  0  0
   -1.6066    1.9649    1.0104 C   0  0  0  0  0  0  0  0  0  0  0  0
   -1.2082    3.2747    1.2179 C   0  0  0  0  0  0  0  0  0  0  0  0
   -0.0061    3.7499    0.8571 N   0  0  0  0  0  0  0  0  0  0  0  0
    0.8269    2.8669    0.2651 C   0  0  0  0  0  0  0  0  0  0  0  0
    0.5438    1.5181   -0.0022 C   0  0  0  0  0  0  0  0  0  0  0  0
    1.6050    0.8007   -0.6307 N   0  0  0  0  0  0  0  0  0  0  0  0
    1.6863   -0.5028   -1.0732 C   0  0  0  0  0  0  0  0  0  0  0  0
    0.7969   -1.3502   -1.0204 O   0  0  0  0  0  0  0  0  0  0  0  0
    3.0597   -0.8561   -1.6609 C   0  0  0  0  0  0  0  0  0  0  0  0
    3.0290   -2.0395   -2.4394 O   0  0  0  0  0  0  0  0  0  0  0  0
   -3.3723   -2.6832    0.0299 H   0  0  0  0  0  0  0  0  0  0  0  0
   -1.8730   -2.4868   -0.8648 H   0  0  0  0  0  0  0  0  0  0  0  0
   -0.4314   -0.8559   -0.2947 H   0  0  0  0  0  0  0  0  0  0  0  0
   -2.6012    1.6898    1.3391 H   0  0  0  0  0  0  0  0  0  0  0  0
   -1.8726    3.9903    1.6948 H   0  0  0  0  0  0  0  0  0  0  0  0
    1.7850    3.3064   -0.0029 H   0  0  0  0  0  0  0  0  0  0  0  0
    2.4402    1.3544   -0.7935 H   0  0  0  0  0  0  0  0  0  0  0  0
    3.7649   -0.9980   -0.8364 H   0  0  0  0  0  0  0  0  0  0  0  0
    3.4125   -0.0409   -2.2993 H   0  0  0  0  0  0  0  0  0  0  0  0
    2.4279   -2.6583   -1.9809 H   0  0  0  0  0  0  0  0  0  0  0  0
  1  2  3  0
  2  3  1  0
  3  4  1  0
  4  5  2  0
  4  6  1  0
  6  7  1  0
  7  8  2  0
  8  9  1  0
  9 10  2  0
 10 11  1  0
 11 12  2  0
 12 13  1  0
 13 14  1  0
 14 15  2  0
 14 16  1  0
 16 17  1  0
 12  7  1  0
  3 18  1  0
  3 19  1  0
  6 20  1  0
  8 21  1  0
  9 22  1  0
 11 23  1  0
 13 24  1  0
 16 25  1  0
 16 26  1  0
 17 27  1  0
M  END
