LIG
     RDKit          3D

 40 41  0  0  0  0  0  0  0  0999 V2000
   28.5490   14.6099   10.4987 C   0  0  0  0  0  0  0  0  0  0  0  0
   29.9622   14.6449   10.2010 N   0  0  0  0  0  0  0  0  0  0  0  0
   30.8156   15.3713   11.1277 C   0  0  0  0  0  0  0  0  0  0  0  0
   30.5758   13.7526    9.3263 C   0  0  0  0  0  0  0  0  0  0  0  0
   31.8086   13.6869    9.2835 O   0  0  0  0  0  0  0  0  0  0  0  0
   29.7174   12.8754    8.3873 C   0  0  0  0  0  0  0  0  0  0  0  0
   30.0781   11.4945    8.3746 O   0  0  0  0  0  0  0  0  0  0  0  0
   31.0830   11.0485    7.5656 C   0  0  0  0  0  0  0  0  0  0  0  0
   31.3285    9.6788    7.5647 C   0  0  0  0  0  0  0  0  0  0  0  0
   32.2747    9.0734    6.8067 N   0  0  0  0  0  0  0  0  0  0  0  0
   33.0105    9.8671    5.9997 C   0  0  0  0  0  0  0  0  0  0  0  0
   32.8407   11.2436    5.9066 C   0  0  0  0  0  0  0  0  0  0  0  0
   33.6053   11.9604    4.9673 N   0  0  0  0  0  0  0  0  0  0  0  0
   33.4875   13.2980    4.6375 C   0  0  0  0  0  0  0  0  0  0  0  0
   32.7331   14.1126    5.1640 O   0  0  0  0  0  0  0  0  0  0  0  0
   34.4114   13.6958    3.4793 C   0  0  0  0  0  0  0  0  0  0  0  0
   33.6973   14.6223    2.5063 C   0  0  0  0  0  0  0  0  0  0  0  0
   34.3819   14.3092    1.2025 C   0  0  0  0  0  0  0  0  0  0  0  0
   34.6299   12.8238    1.3248 C   0  0  0  0  0  0  0  0  0  0  0  0
   34.8413   12.5502    2.7182 O   0  0  0  0  0  0  0  0  0  0  0  0
   31.8740   11.8305    6.7300 C   0  0  0  0  0  0  0  0  0  0  0  0
   28.1662   13.5904   10.5109 H   0  0  0  0  0  0  0  0  0  0  0  0
   28.0133   15.1827    9.7377 H   0  0  0  0  0  0  0  0  0  0  0  0
   28.3763   15.0214   11.4937 H   0  0  0  0  0  0  0  0  0  0  0  0
   30.6723   14.9409   12.1173 H   0  0  0  0  0  0  0  0  0  0  0  0
   30.5539   16.4261   11.1497 H   0  0  0  0  0  0  0  0  0  0  0  0
   31.8734   15.3051   10.8675 H   0  0  0  0  0  0  0  0  0  0  0  0
   29.7425   13.3131    7.3822 H   0  0  0  0  0  0  0  0  0  0  0  0
   28.6646   12.9062    8.6666 H   0  0  0  0  0  0  0  0  0  0  0  0
   30.7431    9.0044    8.1855 H   0  0  0  0  0  0  0  0  0  0  0  0
   33.7507    9.3360    5.4066 H   0  0  0  0  0  0  0  0  0  0  0  0
   34.2817   11.4458    4.4044 H   0  0  0  0  0  0  0  0  0  0  0  0
   35.3056   14.1697    3.8994 H   0  0  0  0  0  0  0  0  0  0  0  0
   33.7773   15.6752    2.7927 H   0  0  0  0  0  0  0  0  0  0  0  0
   32.6303   14.3768    2.4339 H   0  0  0  0  0  0  0  0  0  0  0  0
   35.3378   14.8437    1.1504 H   0  0  0  0  0  0  0  0  0  0  0  0
   33.7931   14.5742    0.3206 H   0  0  0  0  0  0  0  0  0  0  0  0
   35.4980   12.4919    0.7486 H   0  0  0  0  0  0  0  0  0  0  0  0
   33.7554   12.2484    1.0024 H   0  0  0  0  0  0  0  0  0  0  0  0
   31.7446   12.9024    6.7216 H   0  0  0  0  0  0  0  0  0  0  0  0
  1  2  1  0
  2  3  1  0
  2  4  1  0
  4  5  2  0
  4  6  1  0
  6  7  1  0
  7  8  1  0
  8  9  2  0
  9 10  1  0
 10 11  2  0
 11 12  1  0
 12 13  1  0
 13 14  1  0
 14 15  2  0
 14 16  1  0
 16 17  1  0
 17 18  1  0
 18 19  1  0
 19 20  1  0
 12 21  2  0
 21  8  1  0
 20 16  1  0
  1 22  1  0
  1 23  1  0
  1 24  1  0
  3 25  1  0
  3 26  1  0
  3 27  1  0
  6 28  1  0
  6 29  1  0
  9 30  1  0
 11 31  1  0
 13 32  1  0
 16 33  1  0
 17 34  1  0
 17 35  1  0
 18 36  1  0
 18 37  1  0
 19 38  1  0
 19 39  1  0
 21 40  1  0
M  END
