LIG
     RDKit          3D

 34 34  0  0  0  0  0  0  0  0999 V2000
   28.1410   15.4480   10.5470 C   0  0  0  0  0  0  0  0  0  0  0  0
   29.5320   15.0110   10.4940 N   0  0  0  0  0  0  0  0  0  0  0  0
   30.5000   15.9370   11.0760 C   0  0  0  0  0  0  0  0  0  0  0  0
   29.9260   13.8300    9.9860 C   0  0  0  0  0  0  0  0  0  0  0  0
   31.1030   13.5010    9.9720 O   0  0  0  0  0  0  0  0  0  0  0  0
   28.8670   12.8920    9.4310 C   0  0  0  0  0  0  0  0  0  0  0  0
   29.4280   11.6110    9.1450 O   0  0  0  0  0  0  0  0  0  0  0  0
   30.1520   11.4340    7.9910 C   0  0  0  0  0  0  0  0  0  0  0  0
   30.4800   10.1020    7.7350 C   0  0  0  0  0  0  0  0  0  0  0  0
   31.2880    9.8340    6.6350 C   0  0  0  0  0  0  0  0  0  0  0  0
   31.7330   10.8470    5.8070 C   0  0  0  0  0  0  0  0  0  0  0  0
   32.4268   10.4901    4.7190 F   0  0  0  0  0  0  0  0  0  0  0  0
   31.3810   12.1530    6.0670 C   0  0  0  0  0  0  0  0  0  0  0  0
   33.6520   12.7090    6.6590 N   0  0  0  0  0  0  0  0  0  0  0  0
   34.4250   13.2280    7.6390 C   0  0  0  0  0  0  0  0  0  0  0  0
   34.9610   12.5768    8.5622 O   0  0  0  0  0  0  0  0  0  0  0  0
   34.6680   14.7180    7.5670 C   0  0  0  0  0  0  0  0  0  0  0  0
   35.0470   15.1300    6.2680 S   0  0  0  0  0  0  0  0  0  0  0  0
   30.5900   12.4580    7.1610 C   0  0  0  0  0  0  0  0  0  0  0  0
   27.5304   14.7897    9.9230 H   0  0  0  0  0  0  0  0  0  0  0  0
   28.0278   16.4675   10.1768 H   0  0  0  0  0  0  0  0  0  0  0  0
   27.7987   15.3947   11.5838 H   0  0  0  0  0  0  0  0  0  0  0  0
   31.1125   16.4145   10.3084 H   0  0  0  0  0  0  0  0  0  0  0  0
   30.3181   16.9391   10.6801 H   0  0  0  0  0  0  0  0  0  0  0  0
   31.5044   15.6056   10.8002 H   0  0  0  0  0  0  0  0  0  0  0  0
   28.5062   13.3053    8.5049 H   0  0  0  0  0  0  0  0  0  0  0  0
   28.0341   12.8105   10.1036 H   0  0  0  0  0  0  0  0  0  0  0  0
   30.1119    9.3109    8.3534 H   0  0  0  0  0  0  0  0  0  0  0  0
   31.5677    8.7988    6.4027 H   0  0  0  0  0  0  0  0  0  0  0  0
   33.9357   12.5530    5.6085 H   0  0  0  0  0  0  0  0  0  0  0  0
   33.6971   15.1543    7.9878 H   0  0  0  0  0  0  0  0  0  0  0  0
   35.4008   14.8960    8.4322 H   0  0  0  0  0  0  0  0  0  0  0  0
   34.5879   14.1309    5.4366 H   0  0  0  0  0  0  0  0  0  0  0  0
   30.3406   13.4886    7.3629 H   0  0  0  0  0  0  0  0  0  0  0  0
  1  2  1  0
  2  3  1  0
  2  4  1  0
  4  5  2  0
  4  6  1  0
  6  7  1  0
  7  8  1  0
  8  9  4  0
  9 10  4  0
 10 11  4  0
 11 12  1  0
 11 13  4  0
 13 14  1  0
 14 15  1  0
 15 16  2  0
 15 17  1  0
 17 18  1  0
 13 19  4  0
 19  8  4  0
  1 20  1  0
  1 21  1  0
  1 22  1  0
  3 23  1  0
  3 24  1  0
  3 25  1  0
  6 26  1  0
  6 27  1  0
  9 28  1  0
 10 29  1  0
 14 30  1  0
 17 31  1  0
 17 32  1  0
 18 33  1  0
 19 34  1  0
M  END
$$$$
LIG
     RDKit          3D

 34 34  0  0  0  0  0  0  0  0999 V2000
   30.5000   15.9370   11.0760 C   0  0  0  0  0  0  0  0  0  0  0  0
   29.5320   15.0110   10.4940 N   0  0  0  0  0  0  0  0  0  0  0  0
   28.1410   15.4480   10.5470 C   0  0  0  0  0  0  0  0  0  0  0  0
   29.9260   13.8300    9.9860 C   0  0  0  0  0  0  0  0  0  0  0  0
   31.1030   13.5010    9.9720 O   0  0  0  0  0  0  0  0  0  0  0  0
   28.8670   12.8920    9.4310 C   0  0  0  0  0  0  0  0  0  0  0  0
   29.4280   11.6110    9.1450 O   0  0  0  0  0  0  0  0  0  0  0  0
   30.1520   11.4340    7.9910 C   0  0  0  0  0  0  0  0  0  0  0  0
   30.4800   10.1020    7.7350 C   0  0  0  0  0  0  0  0  0  0  0  0
   31.2880    9.8340    6.6350 C   0  0  0  0  0  0  0  0  0  0  0  0
   31.7330   10.8470    5.8070 C   0  0  0  0  0  0  0  0  0  0  0  0
   32.5002   10.5452    4.7536 F   0  0  0  0  0  0  0  0  0  0  0  0
   31.3810   12.1530    6.0670 C   0  0  0  0  0  0  0  0  0  0  0  0
   33.6520   12.7090    6.6590 N   0  0  0  0  0  0  0  0  0  0  0  0
   34.4250   13.2280    7.6390 C   0  0  0  0  0  0  0  0  0  0  0  0
   34.9216   12.5758    8.5913 O   0  0  0  0  0  0  0  0  0  0  0  0
   34.6680   14.7180    7.5670 C   0  0  0  0  0  0  0  0  0  0  0  0
   35.0470   15.1300    6.2680 S   0  0  0  0  0  0  0  0  0  0  0  0
   30.5900   12.4580    7.1610 C   0  0  0  0  0  0  0  0  0  0  0  0
   31.0437   15.4116   11.8666 H   0  0  0  0  0  0  0  0  0  0  0  0
   30.0091   16.8136   11.5004 H   0  0  0  0  0  0  0  0  0  0  0  0
   31.1945   16.2711   10.3010 H   0  0  0  0  0  0  0  0  0  0  0  0
   27.9215   15.9984   11.4648 H   0  0  0  0  0  0  0  0  0  0  0  0
   27.9399   16.1003    9.6932 H   0  0  0  0  0  0  0  0  0  0  0  0
   28.1203   16.5382   10.6221 H   0  0  0  0  0  0  0  0  0  0  0  0
   28.0851   12.7832   10.1893 H   0  0  0  0  0  0  0  0  0  0  0  0
   28.4804   13.3254    8.5039 H   0  0  0  0  0  0  0  0  0  0  0  0
   30.1179    9.3152    8.3633 H   0  0  0  0  0  0  0  0  0  0  0  0
   31.5794    8.7951    6.4134 H   0  0  0  0  0  0  0  0  0  0  0  0
   33.9239   12.3780    5.6312 H   0  0  0  0  0  0  0  0  0  0  0  0
   35.3968   14.9373    8.4447 H   0  0  0  0  0  0  0  0  0  0  0  0
   33.6921   15.1585    8.0276 H   0  0  0  0  0  0  0  0  0  0  0  0
   34.7849   14.0347    5.4753 H   0  0  0  0  0  0  0  0  0  0  0  0
   30.3135   13.4826    7.3659 H   0  0  0  0  0  0  0  0  0  0  0  0
  1  2  1  0
  2  3  1  0
  2  4  1  0
  4  5  2  0
  4  6  1  0
  6  7  1  0
  7  8  1  0
  8  9  4  0
  9 10  4  0
 10 11  4  0
 11 12  1  0
 11 13  4  0
 13 14  1  0
 14 15  1  0
 15 16  2  0
 15 17  1  0
 17 18  1  0
 13 19  4  0
 19  8  4  0
  1 20  1  0
  1 21  1  0
  1 22  1  0
  3 23  1  0
  3 24  1  0
  3 25  1  0
  6 26  1  0
  6 27  1  0
  9 28  1  0
 10 29  1  0
 14 30  1  0
 17 31  1  0
 17 32  1  0
 18 33  1  0
 19 34  1  0
M  END
$$$$
LIG
     RDKit          3D

 34 34  0  0  0  0  0  0  0  0999 V2000
   28.1410   15.4480   10.5470 C   0  0  0  0  0  0  0  0  0  0  0  0
   29.5320   15.0110   10.4940 N   0  0  0  0  0  0  0  0  0  0  0  0
   30.5000   15.9370   11.0760 C   0  0  0  0  0  0  0  0  0  0  0  0
   29.9260   13.8300    9.9860 C   0  0  0  0  0  0  0  0  0  0  0  0
   31.1030   13.5010    9.9720 O   0  0  0  0  0  0  0  0  0  0  0  0
   28.8670   12.8920    9.4310 C   0  0  0  0  0  0  0  0  0  0  0  0
   29.4280   11.6110    9.1450 O   0  0  0  0  0  0  0  0  0  0  0  0
   30.1520   11.4340    7.9910 C   0  0  0  0  0  0  0  0  0  0  0  0
   30.4800   10.1020    7.7350 C   0  0  0  0  0  0  0  0  0  0  0  0
   31.2880    9.8340    6.6350 C   0  0  0  0  0  0  0  0  0  0  0  0
   31.7330   10.8470    5.8070 C   0  0  0  0  0  0  0  0  0  0  0  0
   32.5042   10.5453    4.7581 F   0  0  0  0  0  0  0  0  0  0  0  0
   31.3810   12.1530    6.0670 C   0  0  0  0  0  0  0  0  0  0  0  0
   33.6520   12.7090    6.6590 N   0  0  0  0  0  0  0  0  0  0  0  0
   34.4250   13.2280    7.6390 C   0  0  0  0  0  0  0  0  0  0  0  0
   34.9529   12.5708    8.5689 O   0  0  0  0  0  0  0  0  0  0  0  0
   34.6680   14.7180    7.5670 C   0  0  0  0  0  0  0  0  0  0  0  0
   35.0470   15.1300    6.2680 S   0  0  0  0  0  0  0  0  0  0  0  0
   30.5900   12.4580    7.1610 C   0  0  0  0  0  0  0  0  0  0  0  0
   28.1088   16.4417   11.0016 H   0  0  0  0  0  0  0  0  0  0  0  0
   27.5647   14.7447   11.1540 H   0  0  0  0  0  0  0  0  0  0  0  0
   27.8166   15.6454   11.5691 H   0  0  0  0  0  0  0  0  0  0  0  0
   30.2699   16.9455   10.7223 H   0  0  0  0  0  0  0  0  0  0  0  0
   31.0537   16.4279   10.2715 H   0  0  0  0  0  0  0  0  0  0  0  0
   31.5235   15.6829   10.7917 H   0  0  0  0  0  0  0  0  0  0  0  0
   28.4782   13.3238    8.5050 H   0  0  0  0  0  0  0  0  0  0  0  0
   28.0875   12.7814   10.1897 H   0  0  0  0  0  0  0  0  0  0  0  0
   30.1428    9.2892    8.3450 H   0  0  0  0  0  0  0  0  0  0  0  0
   31.5847    8.7987    6.4136 H   0  0  0  0  0  0  0  0  0  0  0  0
   33.9312   12.4065    5.6308 H   0  0  0  0  0  0  0  0  0  0  0  0
   35.4004   14.9085    8.4435 H   0  0  0  0  0  0  0  0  0  0  0  0
   33.6980   15.1614    8.0135 H   0  0  0  0  0  0  0  0  0  0  0  0
   34.1058   16.0753    5.9189 H   0  0  0  0  0  0  0  0  0  0  0  0
   30.3009   13.4730    7.3959 H   0  0  0  0  0  0  0  0  0  0  0  0
  1  2  1  0
  2  3  1  0
  2  4  1  0
  4  5  2  0
  4  6  1  0
  6  7  1  0
  7  8  1  0
  8  9  4  0
  9 10  4  0
 10 11  4  0
 11 12  1  0
 11 13  4  0
 13 14  1  0
 14 15  1  0
 15 16  2  0
 15 17  1  0
 17 18  1  0
 13 19  4  0
 19  8  4  0
  1 20  1  0
  1 21  1  0
  1 22  1  0
  3 23  1  0
  3 24  1  0
  3 25  1  0
  6 26  1  0
  6 27  1  0
  9 28  1  0
 10 29  1  0
 14 30  1  0
 17 31  1  0
 17 32  1  0
 18 33  1  0
 19 34  1  0
M  END
$$$$
