LIG
     RDKit          3D

 41 43  0  0  0  0  0  0  0  0999 V2000
   28.5033   16.3905    8.4484 C   0  0  0  0  0  0  0  0  0  0  0  0
   28.6296   14.9884    8.4009 N   0  0  0  0  0  0  0  0  0  0  0  0
   27.8988   14.2404    7.4221 C   0  0  0  0  0  0  0  0  0  0  0  0
   28.3993   12.8507    7.6516 C   0  0  0  0  0  0  0  0  0  0  0  0
   29.8738   13.1226    7.8656 C   0  0  0  0  0  0  0  0  0  0  0  0
   30.5009   12.0032    8.4173 O   0  0  0  0  0  0  0  0  0  0  0  0
   31.7343   11.9481    7.8620 C   0  0  0  0  0  0  0  0  0  0  0  0
   32.7239   12.8234    8.2749 C   0  0  0  0  0  0  0  0  0  0  0  0
   33.8905   12.9392    7.6503 N   0  0  0  0  0  0  0  0  0  0  0  0
   34.0257   12.2358    6.5150 C   0  0  0  0  0  0  0  0  0  0  0  0
   33.0126   11.4571    5.9679 C   0  0  0  0  0  0  0  0  0  0  0  0
   32.7226   11.7955    4.6332 N   0  0  0  0  0  0  0  0  0  0  0  0
   33.4495   11.2378    3.6045 C   0  0  0  0  0  0  0  0  0  0  0  0
   33.4954   10.0323    3.4150 O   0  0  0  0  0  0  0  0  0  0  0  0
   34.1212   12.2498    2.6481 C   0  0  0  0  0  0  0  0  0  0  0  0
   33.1733   12.8657    1.6274 C   0  0  0  0  0  0  0  0  0  0  0  0
   32.9590   14.2753    2.1290 C   0  0  0  0  0  0  0  0  0  0  0  0
   34.2716   14.5667    2.8134 C   0  0  0  0  0  0  0  0  0  0  0  0
   34.6338   13.3368    3.4417 O   0  0  0  0  0  0  0  0  0  0  0  0
   31.9082   11.1695    6.7403 C   0  0  0  0  0  0  0  0  0  0  0  0
   29.8525   14.4009    8.6942 C   0  0  0  0  0  0  0  0  0  0  0  0
   30.7388   14.8979    9.3722 O   0  0  0  0  0  0  0  0  0  0  0  0
   28.5300   16.7763    7.4328 H   0  0  0  0  0  0  0  0  0  0  0  0
   27.5815   16.5954    8.9837 H   0  0  0  0  0  0  0  0  0  0  0  0
   29.3477   16.8297    8.9482 H   0  0  0  0  0  0  0  0  0  0  0  0
   26.8362   14.3440    7.5949 H   0  0  0  0  0  0  0  0  0  0  0  0
   28.1618   14.5925    6.4192 H   0  0  0  0  0  0  0  0  0  0  0  0
   28.1941   12.1639    6.8270 H   0  0  0  0  0  0  0  0  0  0  0  0
   27.9623   12.4483    8.5640 H   0  0  0  0  0  0  0  0  0  0  0  0
   30.2860   13.4090    6.8808 H   0  0  0  0  0  0  0  0  0  0  0  0
   32.6088   13.4614    9.1437 H   0  0  0  0  0  0  0  0  0  0  0  0
   34.9377   12.4568    5.9625 H   0  0  0  0  0  0  0  0  0  0  0  0
   32.8640   12.8020    4.5373 H   0  0  0  0  0  0  0  0  0  0  0  0
   34.9676   11.7482    2.1665 H   0  0  0  0  0  0  0  0  0  0  0  0
   32.2372   12.3128    1.5066 H   0  0  0  0  0  0  0  0  0  0  0  0
   33.6656   12.8960    0.6477 H   0  0  0  0  0  0  0  0  0  0  0  0
   32.1415   14.2874    2.8592 H   0  0  0  0  0  0  0  0  0  0  0  0
   32.7211   14.9889    1.3360 H   0  0  0  0  0  0  0  0  0  0  0  0
   35.0531   14.8337    2.0937 H   0  0  0  0  0  0  0  0  0  0  0  0
   34.1936   15.3578    3.5631 H   0  0  0  0  0  0  0  0  0  0  0  0
   31.0963   10.5687    6.3567 H   0  0  0  0  0  0  0  0  0  0  0  0
  1  2  1  0
  2  3  1  0
  3  4  1  0
  4  5  1  0
  5  6  1  0
  6  7  1  0
  7  8  2  0
  8  9  1  0
  9 10  2  0
 10 11  1  0
 11 12  1  0
 12 13  1  0
 13 14  2  0
 13 15  1  0
 15 16  1  0
 16 17  1  0
 17 18  1  0
 18 19  1  0
 11 20  2  0
  5 21  1  0
 21 22  2  0
 21  2  1  0
 20  7  1  0
 19 15  1  0
  1 23  1  0
  1 24  1  0
  1 25  1  0
  3 26  1  0
  3 27  1  0
  4 28  1  0
  4 29  1  0
  5 30  1  0
  8 31  1  0
 10 32  1  0
 12 33  1  0
 15 34  1  0
 16 35  1  0
 16 36  1  0
 17 37  1  0
 17 38  1  0
 18 39  1  0
 18 40  1  0
 20 41  1  0
M  END
