LIG
     RDKit          3D

 48 50  0  0  0  0  0  0  0  0999 V2000
   34.0968    9.2238    5.4200 C   0  0  0  0  0  0  0  0  0  0  0  0
   33.1264   10.2293    5.9523 C   0  0  0  0  0  0  0  0  0  0  0  0
   32.1560    9.7946    6.8645 C   0  0  0  0  0  0  0  0  0  0  0  0
   31.1815   10.6665    7.3638 C   0  0  0  0  0  0  0  0  0  0  0  0
   30.1545   10.0808    8.2653 C   0  0  0  0  0  0  0  0  0  0  0  0
   31.1889   11.9963    6.9470 C   0  0  0  0  0  0  0  0  0  0  0  0
   30.2537   12.9653    7.1652 O   0  0  0  0  0  0  0  0  0  0  0  0
   29.9683   13.1993    8.5084 C   0  0  0  0  0  0  0  0  0  0  0  0
   28.4565   13.3707    8.6389 C   0  0  0  0  0  0  0  0  0  0  0  0
   28.2974   14.8381    8.9114 C   0  0  0  0  0  0  0  0  0  0  0  0
   29.4497   15.1852    9.6987 N   0  0  0  0  0  0  0  0  0  0  0  0
   29.4094   15.0320   11.1372 C   0  0  0  0  0  0  0  0  0  0  0  0
   30.5298   14.4562    9.1729 C   0  0  0  0  0  0  0  0  0  0  0  0
   31.6969   14.7475    9.3770 O   0  0  0  0  0  0  0  0  0  0  0  0
   32.1461   12.4203    6.0568 C   0  0  0  0  0  0  0  0  0  0  0  0
   33.1186   11.5685    5.5496 C   0  0  0  0  0  0  0  0  0  0  0  0
   33.9999   12.0635    4.5780 N   0  0  0  0  0  0  0  0  0  0  0  0
   34.1986   13.4097    4.3118 C   0  0  0  0  0  0  0  0  0  0  0  0
   33.8150   14.3528    5.0010 O   0  0  0  0  0  0  0  0  0  0  0  0
   34.9102   13.6575    2.9876 C   0  0  0  0  0  0  0  0  0  0  0  0
   34.0369   14.5417    2.1064 C   0  0  0  0  0  0  0  0  0  0  0  0
   34.4285   14.1023    0.7229 C   0  0  0  0  0  0  0  0  0  0  0  0
   34.6525   12.6212    0.9176 C   0  0  0  0  0  0  0  0  0  0  0  0
   35.1520   12.4452    2.2506 O   0  0  0  0  0  0  0  0  0  0  0  0
   34.2648    8.4267    6.1423 H   0  0  0  0  0  0  0  0  0  0  0  0
   35.0736    9.6780    5.2297 H   0  0  0  0  0  0  0  0  0  0  0  0
   33.7315    8.7976    4.4833 H   0  0  0  0  0  0  0  0  0  0  0  0
   32.1398    8.7471    7.1688 H   0  0  0  0  0  0  0  0  0  0  0  0
   29.2379   10.6404    8.1194 H   0  0  0  0  0  0  0  0  0  0  0  0
   30.4813   10.1078    9.3014 H   0  0  0  0  0  0  0  0  0  0  0  0
   29.9405    9.0372    8.0092 H   0  0  0  0  0  0  0  0  0  0  0  0
   30.3073   12.3878    9.1393 H   0  0  0  0  0  0  0  0  0  0  0  0
   27.8893   13.0459    7.7615 H   0  0  0  0  0  0  0  0  0  0  0  0
   28.0951   12.8206    9.5077 H   0  0  0  0  0  0  0  0  0  0  0  0
   27.3735   15.1103    9.4227 H   0  0  0  0  0  0  0  0  0  0  0  0
   28.3537   15.4060    7.9745 H   0  0  0  0  0  0  0  0  0  0  0  0
   30.1143   15.7372   11.5877 H   0  0  0  0  0  0  0  0  0  0  0  0
   29.7272   14.0318   11.4347 H   0  0  0  0  0  0  0  0  0  0  0  0
   28.4061   15.1812   11.5250 H   0  0  0  0  0  0  0  0  0  0  0  0
   32.0485   13.4442    5.7176 H   0  0  0  0  0  0  0  0  0  0  0  0
   34.5788   11.4244    4.0434 H   0  0  0  0  0  0  0  0  0  0  0  0
   35.8817   14.1202    3.1923 H   0  0  0  0  0  0  0  0  0  0  0  0
   34.2059   15.6082    2.2839 H   0  0  0  0  0  0  0  0  0  0  0  0
   32.9705   14.3424    2.2722 H   0  0  0  0  0  0  0  0  0  0  0  0
   33.6784   14.3258   -0.0400 H   0  0  0  0  0  0  0  0  0  0  0  0
   35.3684   14.5871    0.4335 H   0  0  0  0  0  0  0  0  0  0  0  0
   35.3645   12.2046    0.1997 H   0  0  0  0  0  0  0  0  0  0  0  0
   33.7121   12.0650    0.8387 H   0  0  0  0  0  0  0  0  0  0  0  0
  1  2  1  0
  2  3  2  0
  3  4  1  0
  4  5  1  0
  4  6  2  0
  6  7  1  0
  7  8  1  0
  8  9  1  0
  9 10  1  0
 10 11  1  0
 11 12  1  0
 11 13  1  0
 13 14  2  0
  6 15  1  0
 15 16  2  0
 16 17  1  0
 17 18  1  0
 18 19  2  0
 18 20  1  0
 20 21  1  0
 21 22  1  0
 22 23  1  0
 23 24  1  0
 16  2  1  0
 24 20  1  0
 13  8  1  0
  1 25  1  0
  1 26  1  0
  1 27  1  0
  3 28  1  0
  5 29  1  0
  5 30  1  0
  5 31  1  0
  8 32  1  0
  9 33  1  0
  9 34  1  0
 10 35  1  0
 10 36  1  0
 12 37  1  0
 12 38  1  0
 12 39  1  0
 15 40  1  0
 17 41  1  0
 20 42  1  0
 21 43  1  0
 21 44  1  0
 22 45  1  0
 22 46  1  0
 23 47  1  0
 23 48  1  0
M  END
