LIG
     RDKit          3D

 45 46  0  0  0  0  0  0  0  0999 V2000
    5.6677    0.5690   -1.4920 C   0  0  0  0  0  0  0  0  0  0  0  0
    6.3174   -0.3673   -0.5870 N   0  0  0  0  0  0  0  0  0  0  0  0
    7.7663   -0.2849   -0.5140 C   0  0  0  0  0  0  0  0  0  0  0  0
    5.6458   -1.0431    0.4325 C   0  0  0  0  0  0  0  0  0  0  0  0
    6.2450   -1.7015    1.2880 O   0  0  0  0  0  0  0  0  0  0  0  0
    4.1156   -0.9944    0.4441 C   0  0  0  0  0  0  0  0  0  0  0  0
    3.6655    0.3359    0.6694 O   0  0  0  0  0  0  0  0  0  0  0  0
    2.3151    0.5472    0.6364 C   0  0  0  0  0  0  0  0  0  0  0  0
    1.9310    1.8813    0.7771 C   0  0  0  0  0  0  0  0  0  0  0  0
    0.5829    2.2358    0.7464 C   0  0  0  0  0  0  0  0  0  0  0  0
   -0.3957    1.2536    0.5847 C   0  0  0  0  0  0  0  0  0  0  0  0
   -0.0249   -0.0852    0.4627 C   0  0  0  0  0  0  0  0  0  0  0  0
   -0.8771   -1.1433    0.2998 O   0  0  0  0  0  0  0  0  0  0  0  0
   -2.2515   -0.9422    0.5963 C   0  0  0  0  0  0  0  0  0  0  0  0
   -3.1109   -0.3752   -0.5482 C   0  0  0  0  0  0  0  0  0  0  0  0
   -2.6204   -0.0733   -1.6373 O   0  0  0  0  0  0  0  0  0  0  0  0
   -4.4774   -0.2297   -0.2992 N   0  0  0  0  0  0  0  0  0  0  0  0
   -5.0696   -0.2591    1.0430 C   0  0  0  0  0  0  0  0  0  0  0  0
   -6.5642   -0.5935    1.0012 C   0  0  0  0  0  0  0  0  0  0  0  0
   -7.2644    0.2733    0.1006 O   0  0  0  0  0  0  0  0  0  0  0  0
   -6.7545    0.1192   -1.2319 C   0  0  0  0  0  0  0  0  0  0  0  0
   -5.2720    0.4908   -1.2997 C   0  0  0  0  0  0  0  0  0  0  0  0
    1.3325   -0.4314    0.4796 C   0  0  0  0  0  0  0  0  0  0  0  0
    4.6529    0.2525   -1.7389 H   0  0  0  0  0  0  0  0  0  0  0  0
    5.6364    1.5527   -1.0146 H   0  0  0  0  0  0  0  0  0  0  0  0
    6.2391    0.6311   -2.4229 H   0  0  0  0  0  0  0  0  0  0  0  0
    8.0394    0.6694   -0.0537 H   0  0  0  0  0  0  0  0  0  0  0  0
    8.1814   -0.3383   -1.5246 H   0  0  0  0  0  0  0  0  0  0  0  0
    8.1910   -1.0989    0.0795 H   0  0  0  0  0  0  0  0  0  0  0  0
    3.7546   -1.3931   -0.5115 H   0  0  0  0  0  0  0  0  0  0  0  0
    3.7736   -1.6447    1.2588 H   0  0  0  0  0  0  0  0  0  0  0  0
    2.6881    2.6512    0.9030 H   0  0  0  0  0  0  0  0  0  0  0  0
    0.2955    3.2800    0.8392 H   0  0  0  0  0  0  0  0  0  0  0  0
   -1.4313    1.5711    0.5362 H   0  0  0  0  0  0  0  0  0  0  0  0
   -2.3690   -0.3347    1.5013 H   0  0  0  0  0  0  0  0  0  0  0  0
   -2.6527   -1.9370    0.8231 H   0  0  0  0  0  0  0  0  0  0  0  0
   -4.9209    0.7410    1.4672 H   0  0  0  0  0  0  0  0  0  0  0  0
   -4.5537   -0.9793    1.6824 H   0  0  0  0  0  0  0  0  0  0  0  0
   -6.7248   -1.6337    0.6936 H   0  0  0  0  0  0  0  0  0  0  0  0
   -7.0022   -0.4688    1.9965 H   0  0  0  0  0  0  0  0  0  0  0  0
   -6.9164   -0.9150   -1.5586 H   0  0  0  0  0  0  0  0  0  0  0  0
   -7.3348    0.7725   -1.8908 H   0  0  0  0  0  0  0  0  0  0  0  0
   -4.8875    0.3034   -2.3075 H   0  0  0  0  0  0  0  0  0  0  0  0
   -5.1459    1.5586   -1.0827 H   0  0  0  0  0  0  0  0  0  0  0  0
    1.5852   -1.4811    0.3726 H   0  0  0  0  0  0  0  0  0  0  0  0
  1  2  1  0
  2  3  1  0
  2  4  1  0
  4  5  2  0
  4  6  1  0
  6  7  1  0
  7  8  1  0
  8  9  2  0
  9 10  1  0
 10 11  2  0
 11 12  1  0
 12 13  1  0
 13 14  1  0
 14 15  1  0
 15 16  2  0
 15 17  1  0
 17 18  1  0
 18 19  1  0
 19 20  1  0
 20 21  1  0
 21 22  1  0
 12 23  2  0
 23  8  1  0
 22 17  1  0
  1 24  1  0
  1 25  1  0
  1 26  1  0
  3 27  1  0
  3 28  1  0
  3 29  1  0
  6 30  1  0
  6 31  1  0
  9 32  1  0
 10 33  1  0
 11 34  1  0
 14 35  1  0
 14 36  1  0
 18 37  1  0
 18 38  1  0
 19 39  1  0
 19 40  1  0
 21 41  1  0
 21 42  1  0
 22 43  1  0
 22 44  1  0
 23 45  1  0
M  END
