LIG
     RDKit          3D

 45 46  0  0  0  0  0  0  0  0999 V2000
   30.5000   15.9370   11.0760 C   0  0  0  0  0  0  0  0  0  0  0  0
   29.5320   15.0110   10.4940 N   0  0  0  0  0  0  0  0  0  0  0  0
   28.1410   15.4480   10.5470 C   0  0  0  0  0  0  0  0  0  0  0  0
   29.9260   13.8300    9.9860 C   0  0  0  0  0  0  0  0  0  0  0  0
   31.1030   13.5010    9.9720 O   0  0  0  0  0  0  0  0  0  0  0  0
   28.8670   12.8920    9.4310 C   0  0  0  0  0  0  0  0  0  0  0  0
   29.4280   11.6110    9.1450 O   0  0  0  0  0  0  0  0  0  0  0  0
   31.1650   10.7950    9.1290 C   0  0  0  0  0  0  0  0  0  0  0  0
   31.5630    9.4800    8.9430 C   0  0  0  0  0  0  0  0  0  0  0  0
   32.6580    9.2460    8.1260 C   0  0  0  0  0  0  0  0  0  0  0  0
   33.3470   10.2740    7.4930 C   0  0  0  0  0  0  0  0  0  0  0  0
   32.8900   11.5720    7.6690 C   0  0  0  0  0  0  0  0  0  0  0  0
   33.3940   12.4720    6.7660 O   0  0  0  0  0  0  0  0  0  0  0  0
   32.5070   13.2300    6.0470 C   0  0  0  0  0  0  0  0  0  0  0  0
   32.8430   14.5690    6.5820 C   0  0  0  0  0  0  0  0  0  0  0  0
   32.2450   15.0040    7.5510 O   0  0  0  0  0  0  0  0  0  0  0  0
   33.9260   15.1770    6.0590 N   0  0  0  0  0  0  0  0  0  0  0  0
   34.5050   15.1130    4.7140 C   0  0  0  0  0  0  0  0  0  0  0  0
   35.9790   14.7950    4.8070 C   0  0  0  0  0  0  0  0  0  0  0  0
   36.6530   15.7410    5.6230 O   0  0  0  0  0  0  0  0  0  0  0  0
   36.2000   15.5640    6.9400 C   0  0  0  0  0  0  0  0  0  0  0  0
   34.7260   15.9040    7.0650 C   0  0  0  0  0  0  0  0  0  0  0  0
   31.8380   11.8440    8.5230 C   0  0  0  0  0  0  0  0  0  0  0  0
   30.2745   16.9447   10.7172 H   0  0  0  0  0  0  0  0  0  0  0  0
   31.5059   15.6478   10.7613 H   0  0  0  0  0  0  0  0  0  0  0  0
   30.4594   15.9283   12.1674 H   0  0  0  0  0  0  0  0  0  0  0  0
   27.6349   14.9411   11.3730 H   0  0  0  0  0  0  0  0  0  0  0  0
   27.9638   15.9185   11.5179 H   0  0  0  0  0  0  0  0  0  0  0  0
   27.4477   14.6161   10.4215 H   0  0  0  0  0  0  0  0  0  0  0  0
   28.3867   13.3146    8.5674 H   0  0  0  0  0  0  0  0  0  0  0  0
   28.1428   12.7193   10.2119 H   0  0  0  0  0  0  0  0  0  0  0  0
   31.0477    8.6497    9.3858 H   0  0  0  0  0  0  0  0  0  0  0  0
   32.9941    8.2064    7.9706 H   0  0  0  0  0  0  0  0  0  0  0  0
   34.2126   10.0352    6.9047 H   0  0  0  0  0  0  0  0  0  0  0  0
   32.6292   13.1593    5.0181 H   0  0  0  0  0  0  0  0  0  0  0  0
   31.5438   12.9887    6.3950 H   0  0  0  0  0  0  0  0  0  0  0  0
   34.3440   16.0565    4.1940 H   0  0  0  0  0  0  0  0  0  0  0  0
   33.9708   14.3186    4.1873 H   0  0  0  0  0  0  0  0  0  0  0  0
   36.4431   14.8090    3.8203 H   0  0  0  0  0  0  0  0  0  0  0  0
   36.1334   13.8089    5.2417 H   0  0  0  0  0  0  0  0  0  0  0  0
   36.7920   16.1969    7.5967 H   0  0  0  0  0  0  0  0  0  0  0  0
   36.3688   14.5249    7.2192 H   0  0  0  0  0  0  0  0  0  0  0  0
   34.3590   15.6771    8.0724 H   0  0  0  0  0  0  0  0  0  0  0  0
   34.5560   16.9716    6.8748 H   0  0  0  0  0  0  0  0  0  0  0  0
   31.5418   12.8642    8.7184 H   0  0  0  0  0  0  0  0  0  0  0  0
  1  2  1  0
  2  3  1  0
  2  4  1  0
  4  5  2  0
  4  6  1  0
  6  7  1  0
  7  8  1  0
  8  9  4  0
  9 10  4  0
 10 11  4  0
 11 12  4  0
 12 13  1  0
 13 14  1  0
 14 15  1  0
 15 16  2  0
 15 17  1  0
 17 18  1  0
 18 19  1  0
 19 20  1  0
 20 21  1  0
 21 22  1  0
 12 23  4  0
 23  8  4  0
 22 17  1  0
  1 24  1  0
  1 25  1  0
  1 26  1  0
  3 27  1  0
  3 28  1  0
  3 29  1  0
  6 30  1  0
  6 31  1  0
  9 32  1  0
 10 33  1  0
 11 34  1  0
 14 35  1  0
 14 36  1  0
 18 37  1  0
 18 38  1  0
 19 39  1  0
 19 40  1  0
 21 41  1  0
 21 42  1  0
 22 43  1  0
 22 44  1  0
 23 45  1  0
M  END
$$$$
LIG
     RDKit          3D

 45 46  0  0  0  0  0  0  0  0999 V2000
   30.5000   15.9370   11.0760 C   0  0  0  0  0  0  0  0  0  0  0  0
   29.5320   15.0110   10.4940 N   0  0  0  0  0  0  0  0  0  0  0  0
   28.1410   15.4480   10.5470 C   0  0  0  0  0  0  0  0  0  0  0  0
   29.9260   13.8300    9.9860 C   0  0  0  0  0  0  0  0  0  0  0  0
   31.1030   13.5010    9.9720 O   0  0  0  0  0  0  0  0  0  0  0  0
   28.8670   12.8920    9.4310 C   0  0  0  0  0  0  0  0  0  0  0  0
   29.4280   11.6110    9.1450 O   0  0  0  0  0  0  0  0  0  0  0  0
   31.1650   10.7950    9.1290 C   0  0  0  0  0  0  0  0  0  0  0  0
   31.5630    9.4800    8.9430 C   0  0  0  0  0  0  0  0  0  0  0  0
   32.6580    9.2460    8.1260 C   0  0  0  0  0  0  0  0  0  0  0  0
   33.3470   10.2740    7.4930 C   0  0  0  0  0  0  0  0  0  0  0  0
   32.8900   11.5720    7.6690 C   0  0  0  0  0  0  0  0  0  0  0  0
   33.3940   12.4720    6.7660 O   0  0  0  0  0  0  0  0  0  0  0  0
   32.5070   13.2300    6.0470 C   0  0  0  0  0  0  0  0  0  0  0  0
   32.8430   14.5690    6.5820 C   0  0  0  0  0  0  0  0  0  0  0  0
   32.2450   15.0040    7.5510 O   0  0  0  0  0  0  0  0  0  0  0  0
   33.9260   15.1770    6.0590 N   0  0  0  0  0  0  0  0  0  0  0  0
   34.7260   15.9040    7.0650 C   0  0  0  0  0  0  0  0  0  0  0  0
   36.2000   15.5640    6.9400 C   0  0  0  0  0  0  0  0  0  0  0  0
   36.6530   15.7410    5.6230 O   0  0  0  0  0  0  0  0  0  0  0  0
   35.9790   14.7950    4.8070 C   0  0  0  0  0  0  0  0  0  0  0  0
   34.5050   15.1130    4.7140 C   0  0  0  0  0  0  0  0  0  0  0  0
   31.8380   11.8440    8.5230 C   0  0  0  0  0  0  0  0  0  0  0  0
   30.6584   15.6599   12.1215 H   0  0  0  0  0  0  0  0  0  0  0  0
   30.1012   16.9530   11.0188 H   0  0  0  0  0  0  0  0  0  0  0  0
   31.4562   15.9068   10.5493 H   0  0  0  0  0  0  0  0  0  0  0  0
   27.7590   15.3122   11.5623 H   0  0  0  0  0  0  0  0  0  0  0  0
   28.0633   16.2644   11.2699 H   0  0  0  0  0  0  0  0  0  0  0  0
   27.4726   14.6401   10.8461 H   0  0  0  0  0  0  0  0  0  0  0  0
   28.4812   13.3314    8.5051 H   0  0  0  0  0  0  0  0  0  0  0  0
   28.0806   12.7762   10.1841 H   0  0  0  0  0  0  0  0  0  0  0  0
   31.0648    8.6463    9.3984 H   0  0  0  0  0  0  0  0  0  0  0  0
   32.9998    8.2065    7.9697 H   0  0  0  0  0  0  0  0  0  0  0  0
   34.2088   10.0674    6.8885 H   0  0  0  0  0  0  0  0  0  0  0  0
   32.6933   13.2196    4.9983 H   0  0  0  0  0  0  0  0  0  0  0  0
   31.4993   13.0028    6.3165 H   0  0  0  0  0  0  0  0  0  0  0  0
   34.3572   15.6762    8.0709 H   0  0  0  0  0  0  0  0  0  0  0  0
   34.5568   16.9709    6.8728 H   0  0  0  0  0  0  0  0  0  0  0  0
   36.7919   16.1998    7.5958 H   0  0  0  0  0  0  0  0  0  0  0  0
   36.3722   14.5255    7.2237 H   0  0  0  0  0  0  0  0  0  0  0  0
   36.4413   14.8138    3.8209 H   0  0  0  0  0  0  0  0  0  0  0  0
   36.1341   13.8095    5.2398 H   0  0  0  0  0  0  0  0  0  0  0  0
   34.3464   16.0566    4.1919 H   0  0  0  0  0  0  0  0  0  0  0  0
   33.9752   14.3161    4.1851 H   0  0  0  0  0  0  0  0  0  0  0  0
   31.5165   12.8526    8.7440 H   0  0  0  0  0  0  0  0  0  0  0  0
  1  2  1  0
  2  3  1  0
  2  4  1  0
  4  5  2  0
  4  6  1  0
  6  7  1  0
  7  8  1  0
  8  9  4  0
  9 10  4  0
 10 11  4  0
 11 12  4  0
 12 13  1  0
 13 14  1  0
 14 15  1  0
 15 16  2  0
 15 17  1  0
 17 18  1  0
 18 19  1  0
 19 20  1  0
 20 21  1  0
 21 22  1  0
 12 23  4  0
 23  8  4  0
 22 17  1  0
  1 24  1  0
  1 25  1  0
  1 26  1  0
  3 27  1  0
  3 28  1  0
  3 29  1  0
  6 30  1  0
  6 31  1  0
  9 32  1  0
 10 33  1  0
 11 34  1  0
 14 35  1  0
 14 36  1  0
 18 37  1  0
 18 38  1  0
 19 39  1  0
 19 40  1  0
 21 41  1  0
 21 42  1  0
 22 43  1  0
 22 44  1  0
 23 45  1  0
M  END
$$$$
LIG
     RDKit          3D

 45 46  0  0  0  0  0  0  0  0999 V2000
   28.1410   15.4480   10.5470 C   0  0  0  0  0  0  0  0  0  0  0  0
   29.5320   15.0110   10.4940 N   0  0  0  0  0  0  0  0  0  0  0  0
   30.5000   15.9370   11.0760 C   0  0  0  0  0  0  0  0  0  0  0  0
   29.9260   13.8300    9.9860 C   0  0  0  0  0  0  0  0  0  0  0  0
   31.1030   13.5010    9.9720 O   0  0  0  0  0  0  0  0  0  0  0  0
   28.8670   12.8920    9.4310 C   0  0  0  0  0  0  0  0  0  0  0  0
   29.4280   11.6110    9.1450 O   0  0  0  0  0  0  0  0  0  0  0  0
   31.1650   10.7950    9.1290 C   0  0  0  0  0  0  0  0  0  0  0  0
   31.5630    9.4800    8.9430 C   0  0  0  0  0  0  0  0  0  0  0  0
   32.6580    9.2460    8.1260 C   0  0  0  0  0  0  0  0  0  0  0  0
   33.3470   10.2740    7.4930 C   0  0  0  0  0  0  0  0  0  0  0  0
   32.8900   11.5720    7.6690 C   0  0  0  0  0  0  0  0  0  0  0  0
   33.3940   12.4720    6.7660 O   0  0  0  0  0  0  0  0  0  0  0  0
   32.5070   13.2300    6.0470 C   0  0  0  0  0  0  0  0  0  0  0  0
   32.8430   14.5690    6.5820 C   0  0  0  0  0  0  0  0  0  0  0  0
   32.2450   15.0040    7.5510 O   0  0  0  0  0  0  0  0  0  0  0  0
   33.9260   15.1770    6.0590 N   0  0  0  0  0  0  0  0  0  0  0  0
   34.5050   15.1130    4.7140 C   0  0  0  0  0  0  0  0  0  0  0  0
   35.9790   14.7950    4.8070 C   0  0  0  0  0  0  0  0  0  0  0  0
   36.6530   15.7410    5.6230 O   0  0  0  0  0  0  0  0  0  0  0  0
   36.2000   15.5640    6.9400 C   0  0  0  0  0  0  0  0  0  0  0  0
   34.7260   15.9040    7.0650 C   0  0  0  0  0  0  0  0  0  0  0  0
   31.8380   11.8440    8.5230 C   0  0  0  0  0  0  0  0  0  0  0  0
   28.0082   16.1069   11.4095 H   0  0  0  0  0  0  0  0  0  0  0  0
   27.5032   14.5660   10.6560 H   0  0  0  0  0  0  0  0  0  0  0  0
   27.8468   15.9902    9.6458 H   0  0  0  0  0  0  0  0  0  0  0  0
   31.2353   16.1939   10.3084 H   0  0  0  0  0  0  0  0  0  0  0  0
   30.9990   15.4536   11.9204 H   0  0  0  0  0  0  0  0  0  0  0  0
   31.5138   15.5363   11.0392 H   0  0  0  0  0  0  0  0  0  0  0  0
   28.0864   12.7784   10.1898 H   0  0  0  0  0  0  0  0  0  0  0  0
   28.4754   13.3261    8.5053 H   0  0  0  0  0  0  0  0  0  0  0  0
   31.0591    8.6471    9.3920 H   0  0  0  0  0  0  0  0  0  0  0  0
   32.9920    8.2067    7.9581 H   0  0  0  0  0  0  0  0  0  0  0  0
   34.1938   10.0537    6.8640 H   0  0  0  0  0  0  0  0  0  0  0  0
   31.4980   12.9982    6.2127 H   0  0  0  0  0  0  0  0  0  0  0  0
   32.8048   13.1891    5.0348 H   0  0  0  0  0  0  0  0  0  0  0  0
   34.3417   16.0532    4.1826 H   0  0  0  0  0  0  0  0  0  0  0  0
   33.9684   14.3180    4.1867 H   0  0  0  0  0  0  0  0  0  0  0  0
   36.1359   13.8091    5.2364 H   0  0  0  0  0  0  0  0  0  0  0  0
   36.4394   14.8204    3.8209 H   0  0  0  0  0  0  0  0  0  0  0  0
   36.7929   16.2020    7.5959 H   0  0  0  0  0  0  0  0  0  0  0  0
   36.3771   14.5260    7.2290 H   0  0  0  0  0  0  0  0  0  0  0  0
   34.3592   15.6676    8.0677 H   0  0  0  0  0  0  0  0  0  0  0  0
   34.5561   16.9703    6.8756 H   0  0  0  0  0  0  0  0  0  0  0  0
   31.5407   12.8675    8.7178 H   0  0  0  0  0  0  0  0  0  0  0  0
  1  2  1  0
  2  3  1  0
  2  4  1  0
  4  5  2  0
  4  6  1  0
  6  7  1  0
  7  8  1  0
  8  9  4  0
  9 10  4  0
 10 11  4  0
 11 12  4  0
 12 13  1  0
 13 14  1  0
 14 15  1  0
 15 16  2  0
 15 17  1  0
 17 18  1  0
 18 19  1  0
 19 20  1  0
 20 21  1  0
 21 22  1  0
 12 23  4  0
 23  8  4  0
 22 17  1  0
  1 24  1  0
  1 25  1  0
  1 26  1  0
  3 27  1  0
  3 28  1  0
  3 29  1  0
  6 30  1  0
  6 31  1  0
  9 32  1  0
 10 33  1  0
 11 34  1  0
 14 35  1  0
 14 36  1  0
 18 37  1  0
 18 38  1  0
 19 39  1  0
 19 40  1  0
 21 41  1  0
 21 42  1  0
 22 43  1  0
 22 44  1  0
 23 45  1  0
M  END
$$$$
