A71EV2A-x0719_A_301_A71EV2A-x0501+A+152+1
     RDKit          3D

 13 13  0  0  0  0  0  0  0  0999 V2000
   33.4410   12.6200    8.8870 O   0  0  0  0  0  0  0  0  0  0  0  0
   33.5770   13.9020    8.2740 S   0  0  0  0  0  0  0  0  0  0  0  0
   32.5040   14.8410    8.3200 O   0  0  0  0  0  0  0  0  0  0  0  0
   34.9080   14.6080    8.8210 N   0  0  0  0  0  0  0  0  0  0  0  0
   34.0500   13.6360    6.5860 C   0  0  0  0  0  0  0  0  0  0  0  0
   33.0000   12.9600    5.6870 C   0  0  1  0  0  0  0  0  0  0  0  0
   33.5790   12.8140    4.2820 C   0  0  0  0  0  0  0  0  0  0  0  0
   32.4560   11.6390    6.2240 C   0  0  0  0  0  0  0  0  0  0  0  0
   31.2990   11.6100    6.9930 C   0  0  0  0  0  0  0  0  0  0  0  0
   30.8200   10.4150    7.5140 C   0  0  0  0  0  0  0  0  0  0  0  0
   31.4710    9.2310    7.2380 C   0  0  0  0  0  0  0  0  0  0  0  0
   32.6100    9.2460    6.4610 C   0  0  0  0  0  0  0  0  0  0  0  0
   33.1060   10.4400    5.9730 C   0  0  0  0  0  0  0  0  0  0  0  0
  6  7  1  6
  6  5  1  0
  5  2  1  0
  3  2  2  0
  2  1  2  0
  4  2  1  0
  8  6  1  0
  8 13  4  0
 13 12  4  0
 12 11  4  0
 11 10  4  0
 10  9  4  0
  9  8  4  0
M  END
