LIG
     RDKit          3D

 44 44  0  0  0  0  0  0  0  0999 V2000
    4.3548    2.9399    0.3204 C   0  0  0  0  0  0  0  0  0  0  0  0
    3.5494    1.6776    0.1400 C   0  0  0  0  0  0  0  0  0  0  0  0
    4.0560    0.5720    0.2998 O   0  0  0  0  0  0  0  0  0  0  0  0
    2.2354    1.9438   -0.1979 N   0  0  0  0  0  0  0  0  0  0  0  0
    1.1842    0.9973   -0.3578 C   0  0  0  0  0  0  0  0  0  0  0  0
    1.3212   -0.2607   -0.9749 C   0  0  0  0  0  0  0  0  0  0  0  0
    2.5566   -0.7516   -1.6994 C   0  0  0  0  0  0  0  0  0  0  0  0
    3.3276   -1.6656   -0.8546 N   0  0  0  0  0  0  0  0  0  0  0  0
    4.5504   -2.5564   -1.5650 S   0  0  0  0  0  0  0  0  0  0  0  0
    5.6897   -1.3010   -2.1186 C   0  0  0  0  0  0  0  0  0  0  0  0
    5.1944   -3.2966   -0.5025 O   0  0  0  0  0  0  0  0  0  0  0  0
    4.0027   -3.2206   -2.7280 O   0  0  0  0  0  0  0  0  0  0  0  0
    0.2114   -1.1314   -0.9896 C   0  0  0  0  0  0  0  0  0  0  0  0
   -1.0301   -0.7534   -0.4756 C   0  0  0  0  0  0  0  0  0  0  0  0
   -1.2038    0.5167    0.0653 C   0  0  0  0  0  0  0  0  0  0  0  0
   -2.3909    0.9889    0.5585 O   0  0  0  0  0  0  0  0  0  0  0  0
   -3.4864    0.0854    0.6549 C   0  0  0  0  0  0  0  0  0  0  0  0
   -4.7148    0.7612    1.2842 C   0  0  0  0  0  0  0  0  0  0  0  0
   -4.7065    1.9541    1.5933 O   0  0  0  0  0  0  0  0  0  0  0  0
   -5.8447   -0.0377    1.4784 N   0  0  0  0  0  0  0  0  0  0  0  0
   -6.9854    0.5451    2.1682 C   0  0  0  0  0  0  0  0  0  0  0  0
   -5.8705   -1.4835    1.3160 C   0  0  0  0  0  0  0  0  0  0  0  0
   -0.0978    1.3869    0.1134 C   0  0  0  0  0  0  0  0  0  0  0  0
   -0.3273    3.1347    0.8818 Br  0  0  0  0  0  0  0  0  0  0  0  0
    4.4352    3.4634   -0.6362 H   0  0  0  0  0  0  0  0  0  0  0  0
    5.3583    2.6850    0.6708 H   0  0  0  0  0  0  0  0  0  0  0  0
    3.8851    3.5879    1.0661 H   0  0  0  0  0  0  0  0  0  0  0  0
    1.9089    2.8650    0.0881 H   0  0  0  0  0  0  0  0  0  0  0  0
    2.2394   -1.2596   -2.6172 H   0  0  0  0  0  0  0  0  0  0  0  0
    3.1663    0.0958   -2.0237 H   0  0  0  0  0  0  0  0  0  0  0  0
    3.6665   -1.1773   -0.0104 H   0  0  0  0  0  0  0  0  0  0  0  0
    5.9738   -0.6738   -1.2726 H   0  0  0  0  0  0  0  0  0  0  0  0
    5.2210   -0.7132   -2.9120 H   0  0  0  0  0  0  0  0  0  0  0  0
    6.5742   -1.8065   -2.5140 H   0  0  0  0  0  0  0  0  0  0  0  0
    0.3151   -2.1243   -1.4313 H   0  0  0  0  0  0  0  0  0  0  0  0
   -1.8389   -1.4741   -0.5369 H   0  0  0  0  0  0  0  0  0  0  0  0
   -3.2023   -0.7577    1.2958 H   0  0  0  0  0  0  0  0  0  0  0  0
   -3.7768   -0.2470   -0.3488 H   0  0  0  0  0  0  0  0  0  0  0  0
   -6.9863    1.6367    2.1039 H   0  0  0  0  0  0  0  0  0  0  0  0
   -6.9414    0.2511    3.2225 H   0  0  0  0  0  0  0  0  0  0  0  0
   -7.9092    0.1690    1.7194 H   0  0  0  0  0  0  0  0  0  0  0  0
   -6.8328   -1.7758    0.8829 H   0  0  0  0  0  0  0  0  0  0  0  0
   -5.7558   -1.9470    2.3016 H   0  0  0  0  0  0  0  0  0  0  0  0
   -5.0758   -1.8429    0.6597 H   0  0  0  0  0  0  0  0  0  0  0  0
  1  2  1  0
  2  3  2  0
  2  4  1  0
  4  5  1  0
  5  6  2  0
  6  7  1  0
  7  8  1  0
  8  9  1  0
  9 10  1  0
  9 11  2  0
  9 12  2  0
  6 13  1  0
 13 14  2  0
 14 15  1  0
 15 16  1  0
 16 17  1  0
 17 18  1  0
 18 19  2  0
 18 20  1  0
 20 21  1  0
 20 22  1  0
 15 23  2  0
 23 24  1  0
 23  5  1  0
  1 25  1  0
  1 26  1  0
  1 27  1  0
  4 28  1  0
  7 29  1  0
  7 30  1  0
  8 31  1  0
 10 32  1  0
 10 33  1  0
 10 34  1  0
 13 35  1  0
 14 36  1  0
 17 37  1  0
 17 38  1  0
 21 39  1  0
 21 40  1  0
 21 41  1  0
 22 42  1  0
 22 43  1  0
 22 44  1  0
M  END
