LIG
     RDKit          3D

 30 30  0  0  0  0  0  0  0  0999 V2000
   28.5340   14.0390    8.5970 C   0  0  0  0  0  0  0  0  0  0  0  0
   29.3000   13.3530    7.8990 C   0  0  0  0  0  0  0  0  0  0  0  0
   29.3990   13.5140    6.5850 O   0  0  0  0  0  0  0  0  0  0  0  0
   30.0510   12.3330    8.4300 N   0  0  0  0  0  0  0  0  0  0  0  0
   31.5450   11.9340    7.6020 C   0  0  0  0  0  0  0  0  0  0  0  0
   30.7220   10.8640    7.9390 C   0  0  0  0  0  0  0  0  0  0  0  0
   31.0170    9.5590    7.5720 C   0  0  0  0  0  0  0  0  0  0  0  0
   32.1560    9.3390    6.8090 C   0  0  0  0  0  0  0  0  0  0  0  0
   33.0110   10.3720    6.4380 C   0  0  0  0  0  0  0  0  0  0  0  0
   34.1980   10.0910    5.5530 C   0  0  0  0  0  0  0  0  0  0  0  0
   32.7080   11.6650    6.8730 C   0  0  0  0  0  0  0  0  0  0  0  0
   33.6520   12.7090    6.6590 N   0  0  0  0  0  0  0  0  0  0  0  0
   34.4250   13.2280    7.6390 C   0  0  0  0  0  0  0  0  0  0  0  0
   34.9120   12.5690    8.5560 O   0  0  0  0  0  0  0  0  0  0  0  0
   34.6680   14.7180    7.5670 C   0  0  0  0  0  0  0  0  0  0  0  0
   35.0470   15.1300    6.2680 O   0  0  0  0  0  0  0  0  0  0  0  0
   28.5382   15.1650    8.3868 H   0  0  0  0  0  0  0  0  0  0  0  0
   27.7264   14.6242    8.0334 H   0  0  0  0  0  0  0  0  0  0  0  0
   27.4175   13.7929    8.5169 H   0  0  0  0  0  0  0  0  0  0  0  0
   29.9350   11.8214    9.1348 H   0  0  0  0  0  0  0  0  0  0  0  0
   29.8040   11.0034    8.5114 H   0  0  0  0  0  0  0  0  0  0  0  0
   30.3829    8.7445    7.8712 H   0  0  0  0  0  0  0  0  0  0  0  0
   32.3659    8.3026    6.5006 H   0  0  0  0  0  0  0  0  0  0  0  0
   35.1317   10.2803    6.0939 H   0  0  0  0  0  0  0  0  0  0  0  0
   34.8167   10.9833    5.4014 H   0  0  0  0  0  0  0  0  0  0  0  0
   34.8416    9.3290    6.0063 H   0  0  0  0  0  0  0  0  0  0  0  0
   33.7402   13.0577    5.7820 H   0  0  0  0  0  0  0  0  0  0  0  0
   33.7614   15.2664    7.8414 H   0  0  0  0  0  0  0  0  0  0  0  0
   35.4730   14.9833    8.2596 H   0  0  0  0  0  0  0  0  0  0  0  0
   34.5784   15.9720    6.0980 H   0  0  0  0  0  0  0  0  0  0  0  0
  1  2  1  0
  2  3  2  0
  2  4  1  0
  4  5  1  0
  5  6  4  0
  6  7  4  0
  7  8  4  0
  8  9  4  0
  9 10  1  0
  9 11  4  0
 11 12  1  0
 12 13  1  0
 13 14  2  0
 13 15  1  0
 15 16  1  0
 11  5  4  0
  1 17  1  0
  1 18  1  0
  1 19  1  0
  4 20  1  0
  6 21  1  0
  7 22  1  0
  8 23  1  0
 10 24  1  0
 10 25  1  0
 10 26  1  0
 12 27  1  0
 15 28  1  0
 15 29  1  0
 16 30  1  0
M  END
$$$$
