LIG
     RDKit          3D

 27 27  0  0  0  0  0  0  0  0999 V2000
   29.2127   14.5475    8.7657 C   0  0  0  0  0  0  0  0  0  0  0  0
   29.6002   13.3601    7.9304 C   0  0  0  0  0  0  0  0  0  0  0  0
   28.7602   12.7797    7.2458 O   0  0  0  0  0  0  0  0  0  0  0  0
   30.9473   13.0516    7.9750 N   0  0  0  0  0  0  0  0  0  0  0  0
   31.4679   11.8242    7.5124 C   0  0  0  0  0  0  0  0  0  0  0  0
   30.7945   10.6376    7.8144 C   0  0  0  0  0  0  0  0  0  0  0  0
   31.2937    9.4085    7.3903 C   0  0  0  0  0  0  0  0  0  0  0  0
   32.4143    9.3676    6.5692 C   0  0  0  0  0  0  0  0  0  0  0  0
   33.0780   10.5419    6.2512 C   0  0  0  0  0  0  0  0  0  0  0  0
   34.1814   10.4750    5.4903 F   0  0  0  0  0  0  0  0  0  0  0  0
   32.6697   11.7635    6.7896 C   0  0  0  0  0  0  0  0  0  0  0  0
   33.5078   12.8839    6.5905 N   0  0  0  0  0  0  0  0  0  0  0  0
   34.1108   13.4809    7.6900 C   0  0  0  0  0  0  0  0  0  0  0  0
   33.8138   13.2454    8.8605 O   0  0  0  0  0  0  0  0  0  0  0  0
   35.2213   14.4528    7.3027 C   0  0  0  0  0  0  0  0  0  0  0  0
   35.1292   14.8974    5.9566 O   0  0  0  0  0  0  0  0  0  0  0  0
   30.0407   14.8797    9.3981 H   0  0  0  0  0  0  0  0  0  0  0  0
   28.9130   15.3686    8.1093 H   0  0  0  0  0  0  0  0  0  0  0  0
   28.3768   14.2708    9.4143 H   0  0  0  0  0  0  0  0  0  0  0  0
   31.6112   13.8058    8.0882 H   0  0  0  0  0  0  0  0  0  0  0  0
   29.8935   10.6528    8.4211 H   0  0  0  0  0  0  0  0  0  0  0  0
   30.7847    8.4891    7.6767 H   0  0  0  0  0  0  0  0  0  0  0  0
   32.8047    8.4241    6.2092 H   0  0  0  0  0  0  0  0  0  0  0  0
   34.1735   12.8085    5.8206 H   0  0  0  0  0  0  0  0  0  0  0  0
   36.1841   13.9546    7.4424 H   0  0  0  0  0  0  0  0  0  0  0  0
   35.1510   15.3071    7.9721 H   0  0  0  0  0  0  0  0  0  0  0  0
   35.1709   15.8804    5.9552 H   0  0  0  0  0  0  0  0  0  0  0  0
  1  2  1  0
  2  3  2  0
  2  4  1  0
  4  5  1  0
  5  6  2  0
  6  7  1  0
  7  8  2  0
  8  9  1  0
  9 10  1  0
  9 11  2  0
 11 12  1  0
 12 13  1  0
 13 14  2  0
 13 15  1  0
 15 16  1  0
 11  5  1  0
  1 17  1  0
  1 18  1  0
  1 19  1  0
  4 20  1  0
  6 21  1  0
  7 22  1  0
  8 23  1  0
 12 24  1  0
 15 25  1  0
 15 26  1  0
 16 27  1  0
M  END
