LIG
     RDKit          3D

 49 51  0  0  0  0  0  0  0  0999 V2000
   34.5920    9.9920    6.6940 C   0  0  0  0  0  0  0  0  0  0  0  0
   33.3470   10.2740    7.4930 C   0  0  0  0  0  0  0  0  0  0  0  0
   32.6580    9.2460    8.1260 C   0  0  0  0  0  0  0  0  0  0  0  0
   31.5630    9.4800    8.9430 C   0  0  0  0  0  0  0  0  0  0  0  0
   31.1650   10.7950    9.1290 C   0  0  0  0  0  0  0  0  0  0  0  0
   31.8380   11.8440    8.5230 C   0  0  0  0  0  0  0  0  0  0  0  0
   30.9510   13.3300    7.5050 O   0  0  0  0  0  0  0  0  0  0  0  0
   30.0580   13.6540    8.5870 C   0  0  0  0  0  0  0  0  0  0  0  0
   28.5940   13.4330    8.1660 C   0  0  0  0  0  0  0  0  0  0  0  0
   27.8900   14.7750    8.3110 C   0  0  0  0  0  0  0  0  0  0  0  0
   28.8690   15.5850    9.0100 N   0  0  0  0  0  0  0  0  0  0  0  0
   28.4820   16.7650    9.7690 C   0  0  0  0  0  0  0  0  0  0  0  0
   30.1260   15.1410    8.9140 C   0  0  0  0  0  0  0  0  0  0  0  0
   31.1310   15.8110    9.0820 O   0  0  0  0  0  0  0  0  0  0  0  0
   32.8900   11.5720    7.6690 C   0  0  0  0  0  0  0  0  0  0  0  0
   33.3940   12.4720    6.7660 O   0  0  0  0  0  0  0  0  0  0  0  0
   32.5070   13.2300    6.0470 C   0  0  0  0  0  0  0  0  0  0  0  0
   32.8430   14.5690    6.5820 C   0  0  0  0  0  0  0  0  0  0  0  0
   32.2450   15.0040    7.5510 O   0  0  0  0  0  0  0  0  0  0  0  0
   33.9260   15.1770    6.0590 N   0  0  0  0  0  0  0  0  0  0  0  0
   34.5050   15.1130    4.7140 C   0  0  0  0  0  0  0  0  0  0  0  0
   35.9790   14.7950    4.8070 C   0  0  0  0  0  0  0  0  0  0  0  0
   36.6530   15.7410    5.6230 O   0  0  0  0  0  0  0  0  0  0  0  0
   36.2000   15.5640    6.9400 C   0  0  0  0  0  0  0  0  0  0  0  0
   34.7260   15.9040    7.0650 C   0  0  0  0  0  0  0  0  0  0  0  0
   34.3250    9.6761    5.6809 H   0  0  0  0  0  0  0  0  0  0  0  0
   35.2226   10.8851    6.6436 H   0  0  0  0  0  0  0  0  0  0  0  0
   35.1873    9.1950    7.1507 H   0  0  0  0  0  0  0  0  0  0  0  0
   32.9793    8.2012    7.9710 H   0  0  0  0  0  0  0  0  0  0  0  0
   31.0404    8.6700    9.4171 H   0  0  0  0  0  0  0  0  0  0  0  0
   30.3037   11.0075    9.7769 H   0  0  0  0  0  0  0  0  0  0  0  0
   30.2952   13.1046    9.5046 H   0  0  0  0  0  0  0  0  0  0  0  0
   28.5503   13.0886    7.1128 H   0  0  0  0  0  0  0  0  0  0  0  0
   28.1030   12.6402    8.7618 H   0  0  0  0  0  0  0  0  0  0  0  0
   27.6450   15.2208    7.3456 H   0  0  0  0  0  0  0  0  0  0  0  0
   26.9945   14.6980    8.9331 H   0  0  0  0  0  0  0  0  0  0  0  0
   28.3535   17.5962    9.0731 H   0  0  0  0  0  0  0  0  0  0  0  0
   29.2702   16.9945   10.4876 H   0  0  0  0  0  0  0  0  0  0  0  0
   29.2222   17.5557    9.6372 H   0  0  0  0  0  0  0  0  0  0  0  0
   32.6797   13.2290    4.9981 H   0  0  0  0  0  0  0  0  0  0  0  0
   31.5221   12.9861    6.3561 H   0  0  0  0  0  0  0  0  0  0  0  0
   34.3411   16.0540    4.1846 H   0  0  0  0  0  0  0  0  0  0  0  0
   33.9683   14.3193    4.1854 H   0  0  0  0  0  0  0  0  0  0  0  0
   36.1348   13.8102    5.2364 H   0  0  0  0  0  0  0  0  0  0  0  0
   36.4383   14.8219    3.8217 H   0  0  0  0  0  0  0  0  0  0  0  0
   36.7919   16.2029    7.5954 H   0  0  0  0  0  0  0  0  0  0  0  0
   36.3771   14.5264    7.2299 H   0  0  0  0  0  0  0  0  0  0  0  0
   34.3650   15.6719    8.0695 H   0  0  0  0  0  0  0  0  0  0  0  0
   34.5578   16.9702    6.8731 H   0  0  0  0  0  0  0  0  0  0  0  0
  1  2  1  0
  2  3  4  0
  3  4  4  0
  4  5  4  0
  5  6  4  0
  6  7  1  0
  7  8  1  0
  8  9  1  0
  9 10  1  0
 10 11  1  0
 11 12  1  0
 11 13  1  0
 13 14  2  0
  6 15  4  0
 15 16  1  0
 16 17  1  0
 17 18  1  0
 18 19  2  0
 18 20  1  0
 20 21  1  0
 21 22  1  0
 22 23  1  0
 23 24  1  0
 24 25  1  0
 15  2  4  0
 25 20  1  0
 13  8  1  0
  1 26  1  0
  1 27  1  0
  1 28  1  0
  3 29  1  0
  4 30  1  0
  5 31  1  0
  8 32  1  0
  9 33  1  0
  9 34  1  0
 10 35  1  0
 10 36  1  0
 12 37  1  0
 12 38  1  0
 12 39  1  0
 17 40  1  0
 17 41  1  0
 21 42  1  0
 21 43  1  0
 22 44  1  0
 22 45  1  0
 24 46  1  0
 24 47  1  0
 25 48  1  0
 25 49  1  0
M  END
$$$$
LIG
     RDKit          3D

 49 51  0  0  0  0  0  0  0  0999 V2000
   34.5920    9.9920    6.6940 C   0  0  0  0  0  0  0  0  0  0  0  0
   33.3470   10.2740    7.4930 C   0  0  0  0  0  0  0  0  0  0  0  0
   32.6580    9.2460    8.1260 C   0  0  0  0  0  0  0  0  0  0  0  0
   31.5630    9.4800    8.9430 C   0  0  0  0  0  0  0  0  0  0  0  0
   31.1650   10.7950    9.1290 C   0  0  0  0  0  0  0  0  0  0  0  0
   31.8380   11.8440    8.5230 C   0  0  0  0  0  0  0  0  0  0  0  0
   30.9510   13.3300    7.5050 O   0  0  0  0  0  0  0  0  0  0  0  0
   30.0580   13.6540    8.5870 C   0  0  0  0  0  0  0  0  0  0  0  0
   28.5940   13.4330    8.1660 C   0  0  0  0  0  0  0  0  0  0  0  0
   27.8900   14.7750    8.3110 C   0  0  0  0  0  0  0  0  0  0  0  0
   28.8690   15.5850    9.0100 N   0  0  0  0  0  0  0  0  0  0  0  0
   28.4820   16.7650    9.7690 C   0  0  0  0  0  0  0  0  0  0  0  0
   30.1260   15.1410    8.9140 C   0  0  0  0  0  0  0  0  0  0  0  0
   31.1310   15.8110    9.0820 O   0  0  0  0  0  0  0  0  0  0  0  0
   32.8900   11.5720    7.6690 C   0  0  0  0  0  0  0  0  0  0  0  0
   33.3940   12.4720    6.7660 O   0  0  0  0  0  0  0  0  0  0  0  0
   32.5070   13.2300    6.0470 C   0  0  0  0  0  0  0  0  0  0  0  0
   32.8430   14.5690    6.5820 C   0  0  0  0  0  0  0  0  0  0  0  0
   32.2450   15.0040    7.5510 O   0  0  0  0  0  0  0  0  0  0  0  0
   33.9260   15.1770    6.0590 N   0  0  0  0  0  0  0  0  0  0  0  0
   34.7260   15.9040    7.0650 C   0  0  0  0  0  0  0  0  0  0  0  0
   36.2000   15.5640    6.9400 C   0  0  0  0  0  0  0  0  0  0  0  0
   36.6530   15.7410    5.6230 O   0  0  0  0  0  0  0  0  0  0  0  0
   35.9790   14.7950    4.8070 C   0  0  0  0  0  0  0  0  0  0  0  0
   34.5050   15.1130    4.7140 C   0  0  0  0  0  0  0  0  0  0  0  0
   35.2495    9.2869    7.2140 H   0  0  0  0  0  0  0  0  0  0  0  0
   35.4830   10.2861    7.2585 H   0  0  0  0  0  0  0  0  0  0  0  0
   35.1588   10.9166    6.5403 H   0  0  0  0  0  0  0  0  0  0  0  0
   32.9929    8.2014    7.9896 H   0  0  0  0  0  0  0  0  0  0  0  0
   31.0529    8.6771    9.4375 H   0  0  0  0  0  0  0  0  0  0  0  0
   30.3211   11.0195    9.7970 H   0  0  0  0  0  0  0  0  0  0  0  0
   29.6961   14.7015    7.0574 H   0  0  0  0  0  0  0  0  0  0  0  0
   28.1103   12.6750    8.8182 H   0  0  0  0  0  0  0  0  0  0  0  0
   28.5056   13.0333    7.1383 H   0  0  0  0  0  0  0  0  0  0  0  0
   27.6894   15.2339    7.3386 H   0  0  0  0  0  0  0  0  0  0  0  0
   26.9661   14.6962    8.8872 H   0  0  0  0  0  0  0  0  0  0  0  0
   27.4024   16.7691    9.9348 H   0  0  0  0  0  0  0  0  0  0  0  0
   28.7783   17.6541    9.2076 H   0  0  0  0  0  0  0  0  0  0  0  0
   29.0071   16.7499   10.7322 H   0  0  0  0  0  0  0  0  0  0  0  0
   32.7185   13.2198    4.9953 H   0  0  0  0  0  0  0  0  0  0  0  0
   31.4969   12.9912    6.3014 H   0  0  0  0  0  0  0  0  0  0  0  0
   34.3422   15.5892    8.0439 H   0  0  0  0  0  0  0  0  0  0  0  0
   34.5612   16.9755    6.9407 H   0  0  0  0  0  0  0  0  0  0  0  0
   36.8026   16.1925    7.6043 H   0  0  0  0  0  0  0  0  0  0  0  0
   36.3728   14.5237    7.2217 H   0  0  0  0  0  0  0  0  0  0  0  0
   36.4315   14.8156    3.8218 H   0  0  0  0  0  0  0  0  0  0  0  0
   36.1301   13.8090    5.2485 H   0  0  0  0  0  0  0  0  0  0  0  0
   34.3431   16.1020    4.2617 H   0  0  0  0  0  0  0  0  0  0  0  0
   33.9788   14.3720    4.1008 H   0  0  0  0  0  0  0  0  0  0  0  0
  1  2  1  0
  2  3  4  0
  3  4  4  0
  4  5  4  0
  5  6  4  0
  6  7  1  0
  7  8  1  0
  8  9  1  0
  9 10  1  0
 10 11  1  0
 11 12  1  0
 11 13  1  0
 13 14  2  0
  6 15  4  0
 15 16  1  0
 16 17  1  0
 17 18  1  0
 18 19  2  0
 18 20  1  0
 20 21  1  0
 21 22  1  0
 22 23  1  0
 23 24  1  0
 24 25  1  0
 15  2  4  0
 25 20  1  0
 13  8  1  0
  1 26  1  0
  1 27  1  0
  1 28  1  0
  3 29  1  0
  4 30  1  0
  5 31  1  0
  8 32  1  0
  9 33  1  0
  9 34  1  0
 10 35  1  0
 10 36  1  0
 12 37  1  0
 12 38  1  0
 12 39  1  0
 17 40  1  0
 17 41  1  0
 21 42  1  0
 21 43  1  0
 22 44  1  0
 22 45  1  0
 24 46  1  0
 24 47  1  0
 25 48  1  0
 25 49  1  0
M  END
$$$$
LIG
     RDKit          3D

 49 51  0  0  0  0  0  0  0  0999 V2000
   34.5920    9.9920    6.6940 C   0  0  0  0  0  0  0  0  0  0  0  0
   33.3470   10.2740    7.4930 C   0  0  0  0  0  0  0  0  0  0  0  0
   32.6580    9.2460    8.1260 C   0  0  0  0  0  0  0  0  0  0  0  0
   31.5630    9.4800    8.9430 C   0  0  0  0  0  0  0  0  0  0  0  0
   31.1650   10.7950    9.1290 C   0  0  0  0  0  0  0  0  0  0  0  0
   31.8380   11.8440    8.5230 C   0  0  0  0  0  0  0  0  0  0  0  0
   30.9510   13.3300    7.5050 O   0  0  0  0  0  0  0  0  0  0  0  0
   30.0580   13.6540    8.5870 C   0  0  0  0  0  0  0  0  0  0  0  0
   28.5940   13.4330    8.1660 C   0  0  0  0  0  0  0  0  0  0  0  0
   27.8900   14.7750    8.3110 C   0  0  0  0  0  0  0  0  0  0  0  0
   28.8690   15.5850    9.0100 N   0  0  0  0  0  0  0  0  0  0  0  0
   28.4820   16.7650    9.7690 C   0  0  0  0  0  0  0  0  0  0  0  0
   30.1260   15.1410    8.9140 C   0  0  0  0  0  0  0  0  0  0  0  0
   31.1310   15.8110    9.0820 O   0  0  0  0  0  0  0  0  0  0  0  0
   32.8900   11.5720    7.6690 C   0  0  0  0  0  0  0  0  0  0  0  0
   33.3940   12.4720    6.7660 O   0  0  0  0  0  0  0  0  0  0  0  0
   32.5070   13.2300    6.0470 C   0  0  0  0  0  0  0  0  0  0  0  0
   32.8430   14.5690    6.5820 C   0  0  0  0  0  0  0  0  0  0  0  0
   32.2450   15.0040    7.5510 O   0  0  0  0  0  0  0  0  0  0  0  0
   33.9260   15.1770    6.0590 N   0  0  0  0  0  0  0  0  0  0  0  0
   34.5050   15.1130    4.7140 C   0  0  0  0  0  0  0  0  0  0  0  0
   35.9790   14.7950    4.8070 C   0  0  0  0  0  0  0  0  0  0  0  0
   36.6530   15.7410    5.6230 O   0  0  0  0  0  0  0  0  0  0  0  0
   36.2000   15.5640    6.9400 C   0  0  0  0  0  0  0  0  0  0  0  0
   34.7260   15.9040    7.0650 C   0  0  0  0  0  0  0  0  0  0  0  0
   34.3833    9.2371    5.9303 H   0  0  0  0  0  0  0  0  0  0  0  0
   34.9510   10.9072    6.2140 H   0  0  0  0  0  0  0  0  0  0  0  0
   34.4447   10.2183    5.6337 H   0  0  0  0  0  0  0  0  0  0  0  0
   32.9831    8.2018    7.9775 H   0  0  0  0  0  0  0  0  0  0  0  0
   31.0402    8.6719    9.4192 H   0  0  0  0  0  0  0  0  0  0  0  0
   30.2949   11.0066    9.7713 H   0  0  0  0  0  0  0  0  0  0  0  0
   29.6682   14.6841    7.0328 H   0  0  0  0  0  0  0  0  0  0  0  0
   28.0877   12.6381    8.7433 H   0  0  0  0  0  0  0  0  0  0  0  0
   28.5662   13.1220    7.1028 H   0  0  0  0  0  0  0  0  0  0  0  0
   26.9961   14.7026    8.9349 H   0  0  0  0  0  0  0  0  0  0  0  0
   27.6435   15.2231    7.3468 H   0  0  0  0  0  0  0  0  0  0  0  0
   27.4030   16.9120    9.7007 H   0  0  0  0  0  0  0  0  0  0  0  0
   28.9911   17.6326    9.3449 H   0  0  0  0  0  0  0  0  0  0  0  0
   28.7743   16.6259   10.8107 H   0  0  0  0  0  0  0  0  0  0  0  0
   31.4866   13.0039    6.2087 H   0  0  0  0  0  0  0  0  0  0  0  0
   32.7925   13.2021    5.0223 H   0  0  0  0  0  0  0  0  0  0  0  0
   33.9827   14.3618    4.1221 H   0  0  0  0  0  0  0  0  0  0  0  0
   34.3491   16.0962    4.2636 H   0  0  0  0  0  0  0  0  0  0  0  0
   36.1356   13.8069    5.2392 H   0  0  0  0  0  0  0  0  0  0  0  0
   36.4403   14.8138    3.8218 H   0  0  0  0  0  0  0  0  0  0  0  0
   36.3757   14.5297    7.2285 H   0  0  0  0  0  0  0  0  0  0  0  0
   36.7902   16.2073    7.5926 H   0  0  0  0  0  0  0  0  0  0  0  0
   34.3373   15.5936    8.0436 H   0  0  0  0  0  0  0  0  0  0  0  0
   34.5668   16.9836    6.9642 H   0  0  0  0  0  0  0  0  0  0  0  0
  1  2  1  0
  2  3  4  0
  3  4  4  0
  4  5  4  0
  5  6  4  0
  6  7  1  0
  7  8  1  0
  8  9  1  0
  9 10  1  0
 10 11  1  0
 11 12  1  0
 11 13  1  0
 13 14  2  0
  6 15  4  0
 15 16  1  0
 16 17  1  0
 17 18  1  0
 18 19  2  0
 18 20  1  0
 20 21  1  0
 21 22  1  0
 22 23  1  0
 23 24  1  0
 24 25  1  0
 15  2  4  0
 25 20  1  0
 13  8  1  0
  1 26  1  0
  1 27  1  0
  1 28  1  0
  3 29  1  0
  4 30  1  0
  5 31  1  0
  8 32  1  0
  9 33  1  0
  9 34  1  0
 10 35  1  0
 10 36  1  0
 12 37  1  0
 12 38  1  0
 12 39  1  0
 17 40  1  0
 17 41  1  0
 21 42  1  0
 21 43  1  0
 22 44  1  0
 22 45  1  0
 24 46  1  0
 24 47  1  0
 25 48  1  0
 25 49  1  0
M  END
$$$$
