LIG
     RDKit          3D

 45 46  0  0  0  0  0  0  0  0999 V2000
   30.1649   15.3330   11.0564 C   0  0  0  0  0  0  0  0  0  0  0  0
   29.4852   14.6595    9.9618 N   0  0  0  0  0  0  0  0  0  0  0  0
   28.3268   15.2568    9.3276 C   0  0  0  0  0  0  0  0  0  0  0  0
   30.2020   13.6563    9.3245 C   0  0  0  0  0  0  0  0  0  0  0  0
   31.4165   13.5582    9.4828 O   0  0  0  0  0  0  0  0  0  0  0  0
   29.3660   12.6866    8.4748 C   0  0  0  0  0  0  0  0  0  0  0  0
   29.6960   11.3194    8.5820 O   0  0  0  0  0  0  0  0  0  0  0  0
   30.7372   10.7985    7.9025 C   0  0  0  0  0  0  0  0  0  0  0  0
   31.4717   11.5136    6.9728 C   0  0  0  0  0  0  0  0  0  0  0  0
   32.4973   10.9188    6.2508 C   0  0  0  0  0  0  0  0  0  0  0  0
   33.2727   11.5514    5.3258 O   0  0  0  0  0  0  0  0  0  0  0  0
   32.9210   12.8790    4.9486 C   0  0  0  0  0  0  0  0  0  0  0  0
   33.4626   13.8601    5.9652 C   0  0  0  0  0  0  0  0  0  0  0  0
   32.9727   13.8965    7.0963 O   0  0  0  0  0  0  0  0  0  0  0  0
   34.5247   14.6670    5.6342 N   0  0  0  0  0  0  0  0  0  0  0  0
   35.4510   14.8928    6.7395 C   0  0  0  0  0  0  0  0  0  0  0  0
   36.5254   13.8080    6.6351 C   0  0  0  0  0  0  0  0  0  0  0  0
   37.2688   13.9992    5.4125 O   0  0  0  0  0  0  0  0  0  0  0  0
   36.4018   13.8044    4.2784 C   0  0  0  0  0  0  0  0  0  0  0  0
   35.1959   14.7496    4.3306 C   0  0  0  0  0  0  0  0  0  0  0  0
   32.7535    9.5672    6.4338 C   0  0  0  0  0  0  0  0  0  0  0  0
   32.0022    8.8378    7.3556 C   0  0  0  0  0  0  0  0  0  0  0  0
   31.0253    9.4570    8.1134 C   0  0  0  0  0  0  0  0  0  0  0  0
   30.3739    8.7436    9.0448 F   0  0  0  0  0  0  0  0  0  0  0  0
   29.4388   15.5572   11.8404 H   0  0  0  0  0  0  0  0  0  0  0  0
   30.6594   16.2341   10.6891 H   0  0  0  0  0  0  0  0  0  0  0  0
   30.9301   14.6934   11.4968 H   0  0  0  0  0  0  0  0  0  0  0  0
   27.5361   15.3677   10.0640 H   0  0  0  0  0  0  0  0  0  0  0  0
   28.6177   16.2086    8.8773 H   0  0  0  0  0  0  0  0  0  0  0  0
   27.9275   14.6682    8.5007 H   0  0  0  0  0  0  0  0  0  0  0  0
   29.3219   13.0332    7.4363 H   0  0  0  0  0  0  0  0  0  0  0  0
   28.3352   12.7274    8.8369 H   0  0  0  0  0  0  0  0  0  0  0  0
   31.2287   12.5498    6.8149 H   0  0  0  0  0  0  0  0  0  0  0  0
   31.8435   13.0284    4.8211 H   0  0  0  0  0  0  0  0  0  0  0  0
   33.3433   13.0282    3.9567 H   0  0  0  0  0  0  0  0  0  0  0  0
   34.9616   14.8565    7.7165 H   0  0  0  0  0  0  0  0  0  0  0  0
   35.8897   15.8759    6.5967 H   0  0  0  0  0  0  0  0  0  0  0  0
   37.2186   13.8222    7.4786 H   0  0  0  0  0  0  0  0  0  0  0  0
   36.0774   12.8135    6.5992 H   0  0  0  0  0  0  0  0  0  0  0  0
   36.9881   13.9908    3.3734 H   0  0  0  0  0  0  0  0  0  0  0  0
   36.0807   12.7563    4.2587 H   0  0  0  0  0  0  0  0  0  0  0  0
   35.5625   15.7718    4.2148 H   0  0  0  0  0  0  0  0  0  0  0  0
   34.5024   14.5699    3.5073 H   0  0  0  0  0  0  0  0  0  0  0  0
   33.5378    9.0707    5.8666 H   0  0  0  0  0  0  0  0  0  0  0  0
   32.1860    7.7863    7.5132 H   0  0  0  0  0  0  0  0  0  0  0  0
  1  2  1  0
  2  3  1  0
  2  4  1  0
  4  5  2  0
  4  6  1  0
  6  7  1  0
  7  8  1  0
  8  9  2  0
  9 10  1  0
 10 11  1  0
 11 12  1  0
 12 13  1  0
 13 14  2  0
 13 15  1  0
 15 16  1  0
 16 17  1  0
 17 18  1  0
 18 19  1  0
 19 20  1  0
 10 21  2  0
 21 22  1  0
 22 23  2  0
 23 24  1  0
 23  8  1  0
 20 15  1  0
  1 25  1  0
  1 26  1  0
  1 27  1  0
  3 28  1  0
  3 29  1  0
  3 30  1  0
  6 31  1  0
  6 32  1  0
  9 33  1  0
 12 34  1  0
 12 35  1  0
 16 36  1  0
 16 37  1  0
 17 38  1  0
 17 39  1  0
 19 40  1  0
 19 41  1  0
 20 42  1  0
 20 43  1  0
 21 44  1  0
 22 45  1  0
M  END
