LIG
     RDKit          3D

 42 44  0  0  0  0  0  0  0  0999 V2000
   27.7581   15.5849    9.1218 C   0  0  0  0  0  0  0  0  0  0  0  0
   28.5974   14.7459    8.3464 N   0  0  0  0  0  0  0  0  0  0  0  0
   28.0668   13.6107    7.6659 C   0  0  0  0  0  0  0  0  0  0  0  0
   29.2313   13.1494    6.8434 C   0  0  0  0  0  0  0  0  0  0  0  0
   30.4247   13.4515    7.7502 C   0  0  0  0  0  0  0  0  0  0  0  0
   30.8481   12.3084    8.4591 O   0  0  0  0  0  0  0  0  0  0  0  0
   31.5619   11.4546    7.6749 C   0  0  0  0  0  0  0  0  0  0  0  0
   31.2955   10.1022    7.7638 C   0  0  0  0  0  0  0  0  0  0  0  0
   32.0152    9.2268    6.9556 C   0  0  0  0  0  0  0  0  0  0  0  0
   32.9173    9.7132    5.9945 C   0  0  0  0  0  0  0  0  0  0  0  0
   33.1302   11.0833    5.8784 C   0  0  0  0  0  0  0  0  0  0  0  0
   33.8891   11.6348    4.8291 N   0  0  0  0  0  0  0  0  0  0  0  0
   33.8146   12.9713    4.4252 C   0  0  0  0  0  0  0  0  0  0  0  0
   33.0584   13.8267    4.8855 O   0  0  0  0  0  0  0  0  0  0  0  0
   34.8111   13.3038    3.3073 C   0  0  0  0  0  0  0  0  0  0  0  0
   34.3979   14.5278    2.4985 C   0  0  0  0  0  0  0  0  0  0  0  0
   33.6874   13.9166    1.3181 C   0  0  0  0  0  0  0  0  0  0  0  0
   34.5012   12.6647    1.0897 C   0  0  0  0  0  0  0  0  0  0  0  0
   34.9104   12.2022    2.3844 O   0  0  0  0  0  0  0  0  0  0  0  0
   32.5498   11.9128    6.8187 C   0  0  0  0  0  0  0  0  0  0  0  0
   29.9332   14.5555    8.6652 C   0  0  0  0  0  0  0  0  0  0  0  0
   30.6156   15.1766    9.4677 O   0  0  0  0  0  0  0  0  0  0  0  0
   28.1166   16.5943    8.9462 H   0  0  0  0  0  0  0  0  0  0  0  0
   26.7413   15.5287    8.7516 H   0  0  0  0  0  0  0  0  0  0  0  0
   27.8130   15.2722   10.1641 H   0  0  0  0  0  0  0  0  0  0  0  0
   27.2117   13.8794    7.0441 H   0  0  0  0  0  0  0  0  0  0  0  0
   27.7901   12.8567    8.4046 H   0  0  0  0  0  0  0  0  0  0  0  0
   29.3024   13.7550    5.9307 H   0  0  0  0  0  0  0  0  0  0  0  0
   29.1306   12.1031    6.5513 H   0  0  0  0  0  0  0  0  0  0  0  0
   31.2188   13.9030    7.1615 H   0  0  0  0  0  0  0  0  0  0  0  0
   30.5548    9.7282    8.4658 H   0  0  0  0  0  0  0  0  0  0  0  0
   31.8545    8.1584    7.0673 H   0  0  0  0  0  0  0  0  0  0  0  0
   33.4280    9.0104    5.3421 H   0  0  0  0  0  0  0  0  0  0  0  0
   34.3918   11.0112    4.2051 H   0  0  0  0  0  0  0  0  0  0  0  0
   35.7875   13.4573    3.7805 H   0  0  0  0  0  0  0  0  0  0  0  0
   33.7860   15.2580    3.0344 H   0  0  0  0  0  0  0  0  0  0  0  0
   35.2974   15.0484    2.1463 H   0  0  0  0  0  0  0  0  0  0  0  0
   33.6504   14.5684    0.4416 H   0  0  0  0  0  0  0  0  0  0  0  0
   32.6609   13.6527    1.5986 H   0  0  0  0  0  0  0  0  0  0  0  0
   35.4043   12.8770    0.5071 H   0  0  0  0  0  0  0  0  0  0  0  0
   33.9337   11.8800    0.5819 H   0  0  0  0  0  0  0  0  0  0  0  0
   32.8783   12.9426    6.8926 H   0  0  0  0  0  0  0  0  0  0  0  0
  1  2  1  0
  2  3  1  0
  3  4  1  0
  4  5  1  0
  5  6  1  0
  6  7  1  0
  7  8  2  0
  8  9  1  0
  9 10  2  0
 10 11  1  0
 11 12  1  0
 12 13  1  0
 13 14  2  0
 13 15  1  0
 15 16  1  0
 16 17  1  0
 17 18  1  0
 18 19  1  0
 11 20  2  0
  5 21  1  0
 21 22  2  0
 21  2  1  0
 20  7  1  0
 19 15  1  0
  1 23  1  0
  1 24  1  0
  1 25  1  0
  3 26  1  0
  3 27  1  0
  4 28  1  0
  4 29  1  0
  5 30  1  0
  8 31  1  0
  9 32  1  0
 10 33  1  0
 12 34  1  0
 15 35  1  0
 16 36  1  0
 16 37  1  0
 17 38  1  0
 17 39  1  0
 18 40  1  0
 18 41  1  0
 20 42  1  0
M  END
