LIG
     RDKit          3D

 31 31  0  0  0  0  0  0  0  0999 V2000
    0.9923    2.7702   -0.2853 C   0  0  0  0  0  0  0  0  0  0  0  0
    1.1998    1.5496   -0.9344 C   0  0  0  0  0  0  0  0  0  0  0  0
    0.5907    0.3757   -0.4723 C   0  0  0  0  0  0  0  0  0  0  0  0
    0.8797   -0.8883   -1.0565 N   0  0  0  0  0  0  0  0  0  0  0  0
    1.6147   -1.1428   -2.2072 C   0  0  0  0  0  0  0  0  0  0  0  0
    2.0958   -0.3230   -2.9849 O   0  0  0  0  0  0  0  0  0  0  0  0
    1.7887   -2.6427   -2.4795 C   0  0  0  0  0  0  0  0  0  0  0  0
    2.5519   -2.8970   -3.6487 O   0  0  0  0  0  0  0  0  0  0  0  0
   -0.2861    0.4479    0.6468 C   0  0  0  0  0  0  0  0  0  0  0  0
   -0.9954   -0.7201    1.0471 N   0  0  0  0  0  0  0  0  0  0  0  0
   -1.8236   -0.8770    2.1533 C   0  0  0  0  0  0  0  0  0  0  0  0
   -2.0027   -0.0454    3.0419 O   0  0  0  0  0  0  0  0  0  0  0  0
   -2.4422   -2.2547    2.3026 C   0  0  0  0  0  0  0  0  0  0  0  0
   -2.9243   -2.7959    1.0321 C   0  0  0  0  0  0  0  0  0  0  0  0
   -3.2083   -3.2258   -0.0078 N   0  0  0  0  0  0  0  0  0  0  0  0
   -0.4705    1.6812    1.2907 C   0  0  0  0  0  0  0  0  0  0  0  0
    0.1723    2.8425    0.8392 C   0  0  0  0  0  0  0  0  0  0  0  0
   -0.0736    4.1592    1.5138 C   0  0  0  0  0  0  0  0  0  0  0  0
    1.4867    3.6618   -0.6656 H   0  0  0  0  0  0  0  0  0  0  0  0
    1.8684    1.5542   -1.7900 H   0  0  0  0  0  0  0  0  0  0  0  0
    0.5911   -1.7011   -0.5342 H   0  0  0  0  0  0  0  0  0  0  0  0
    0.8012   -3.1008   -2.6141 H   0  0  0  0  0  0  0  0  0  0  0  0
    2.2960   -3.1090   -1.6262 H   0  0  0  0  0  0  0  0  0  0  0  0
    2.7763   -2.0173   -4.0216 H   0  0  0  0  0  0  0  0  0  0  0  0
   -0.9912   -1.4672    0.3668 H   0  0  0  0  0  0  0  0  0  0  0  0
   -3.2678   -2.1918    3.0216 H   0  0  0  0  0  0  0  0  0  0  0  0
   -1.6789   -2.9140    2.7376 H   0  0  0  0  0  0  0  0  0  0  0  0
   -1.1402    1.7810    2.1401 H   0  0  0  0  0  0  0  0  0  0  0  0
   -0.8790    4.6977    0.9992 H   0  0  0  0  0  0  0  0  0  0  0  0
   -0.3547    4.0180    2.5647 H   0  0  0  0  0  0  0  0  0  0  0  0
    0.8329    4.7750    1.4996 H   0  0  0  0  0  0  0  0  0  0  0  0
  1  2  2  0
  2  3  1  0
  3  4  1  0
  4  5  1  0
  5  6  2  0
  5  7  1  0
  7  8  1  0
  3  9  2  0
  9 10  1  0
 10 11  1  0
 11 12  2  0
 11 13  1  0
 13 14  1  0
 14 15  3  0
  9 16  1  0
 16 17  2  0
 17 18  1  0
 17  1  1  0
  1 19  1  0
  2 20  1  0
  4 21  1  0
  7 22  1  0
  7 23  1  0
  8 24  1  0
 10 25  1  0
 13 26  1  0
 13 27  1  0
 16 28  1  0
 18 29  1  0
 18 30  1  0
 18 31  1  0
M  END
