LIG
     RDKit          3D

 31 31  0  0  0  0  0  0  0  0999 V2000
   33.9640    9.4730    5.7020 C   0  0  0  0  0  0  0  0  0  0  0  0
   32.8910    9.7790    6.6350 C   0  0  0  0  0  0  0  0  0  0  0  0
   32.3120   10.9580    6.8650 C   0  0  0  0  0  0  0  0  0  0  0  0
   32.7600   12.2430    6.2540 N   0  0  0  0  0  0  0  0  0  0  0  0
   34.4250   13.2280    7.6390 C   0  0  0  0  0  0  0  0  0  0  0  0
   34.9120   12.5690    8.5560 O   0  0  0  0  0  0  0  0  0  0  0  0
   34.6680   14.7180    7.5670 C   0  0  0  0  0  0  0  0  0  0  0  0
   35.0470   15.1300    6.2680 O   0  0  0  0  0  0  0  0  0  0  0  0
   31.2980   10.7060    7.7380 C   0  0  0  0  0  0  0  0  0  0  0  0
   30.3770   11.5810    8.3040 N   0  0  0  0  0  0  0  0  0  0  0  0
   29.7090   12.5130    7.5840 C   0  0  0  0  0  0  0  0  0  0  0  0
   29.9180   12.6920    6.3980 O   0  0  0  0  0  0  0  0  0  0  0  0
   28.7130   13.3600    8.3510 C   0  0  0  0  0  0  0  0  0  0  0  0
   28.5830   14.6820    7.7450 C   0  0  0  0  0  0  0  0  0  0  0  0
   28.5580   15.7160    7.2730 N   0  0  0  0  0  0  0  0  0  0  0  0
   31.3250    9.3200    8.0160 C   0  0  0  0  0  0  0  0  0  0  0  0
   30.4340    8.4960    8.8860 C   0  0  0  0  0  0  0  0  0  0  0  0
   31.6828    7.2038    8.0436 C   0  0  0  0  0  0  0  0  0  0  0  0
   33.1717    8.0285    6.4725 H   0  0  0  0  0  0  0  0  0  0  0  0
   32.5766    8.8475    7.2140 H   0  0  0  0  0  0  0  0  0  0  0  0
   32.9027   12.8033    5.6977 H   0  0  0  0  0  0  0  0  0  0  0  0
   35.4564   15.0019    8.2761 H   0  0  0  0  0  0  0  0  0  0  0  0
   33.7399   15.2381    7.8349 H   0  0  0  0  0  0  0  0  0  0  0  0
   34.2268   15.3738    5.7936 H   0  0  0  0  0  0  0  0  0  0  0  0
   30.2047   11.5048    9.2720 H   0  0  0  0  0  0  0  0  0  0  0  0
   27.7460   12.8405    8.3598 H   0  0  0  0  0  0  0  0  0  0  0  0
   29.0412   13.4352    9.3960 H   0  0  0  0  0  0  0  0  0  0  0  0
   32.1124    8.6796    7.5049 H   0  0  0  0  0  0  0  0  0  0  0  0
   32.2855    6.9937    8.9326 H   0  0  0  0  0  0  0  0  0  0  0  0
   31.9979    6.5336    7.2369 H   0  0  0  0  0  0  0  0  0  0  0  0
   30.6343    6.9762    8.2628 H   0  0  0  0  0  0  0  0  0  0  0  0
  1  2  4  0
  2  3  4  0
  3  4  1  0
  4  5  1  0
  5  6  2  0
  5  7  1  0
  7  8  1  0
  3  9  4  0
  9 10  1  0
 10 11  1  0
 11 12  2  0
 11 13  1  0
 13 14  1  0
 14 15  3  0
  9 16  4  0
 16 17  4  0
 17 18  1  0
 17  1  4  0
  1 19  1  0
  2 20  1  0
  4 21  1  0
  7 22  1  0
  7 23  1  0
  8 24  1  0
 10 25  1  0
 13 26  1  0
 13 27  1  0
 16 28  1  0
 18 29  1  0
 18 30  1  0
 18 31  1  0
M  END
