LIG
     RDKit          3D

 42 44  0  0  0  0  0  0  0  0999 V2000
   -6.6764    1.4589   -0.5130 C   0  0  0  0  0  0  0  0  0  0  0  0
   -5.4464    0.8018   -0.1403 N   0  0  0  0  0  0  0  0  0  0  0  0
   -5.4081   -0.5746    0.2716 C   0  0  0  0  0  0  0  0  0  0  0  0
   -3.9258   -0.8678    0.3596 C   0  0  0  0  0  0  0  0  0  0  0  0
   -3.3143    0.4580    0.8251 C   0  0  0  0  0  0  0  0  0  0  0  0
   -1.9995    0.6357    0.3305 O   0  0  0  0  0  0  0  0  0  0  0  0
   -0.9785   -0.0614    0.9159 C   0  0  0  0  0  0  0  0  0  0  0  0
   -1.0408   -0.7394    2.1322 C   0  0  0  0  0  0  0  0  0  0  0  0
    0.0847   -1.4097    2.6143 C   0  0  0  0  0  0  0  0  0  0  0  0
    1.2723   -1.4040    1.8819 C   0  0  0  0  0  0  0  0  0  0  0  0
    1.3512   -0.7244    0.6622 C   0  0  0  0  0  0  0  0  0  0  0  0
    2.5809   -0.7732   -0.0178 N   0  0  0  0  0  0  0  0  0  0  0  0
    2.9254   -0.1784   -1.2207 C   0  0  0  0  0  0  0  0  0  0  0  0
    2.1995    0.4997   -1.9390 O   0  0  0  0  0  0  0  0  0  0  0  0
    4.3749   -0.5305   -1.6199 C   0  0  0  0  0  0  0  0  0  0  0  0
    5.0751    0.6036   -2.3491 C   0  0  0  0  0  0  0  0  0  0  0  0
    5.7575    1.3329   -1.2183 C   0  0  0  0  0  0  0  0  0  0  0  0
    6.1667    0.1941   -0.3114 C   0  0  0  0  0  0  0  0  0  0  0  0
    5.1704   -0.8304   -0.4538 O   0  0  0  0  0  0  0  0  0  0  0  0
    0.2217   -0.0521    0.1911 C   0  0  0  0  0  0  0  0  0  0  0  0
   -4.2876    1.4840    0.2270 C   0  0  0  0  0  0  0  0  0  0  0  0
   -4.1065    2.6886    0.1372 O   0  0  0  0  0  0  0  0  0  0  0  0
   -7.3434    1.4767    0.3541 H   0  0  0  0  0  0  0  0  0  0  0  0
   -6.4803    2.4849   -0.8359 H   0  0  0  0  0  0  0  0  0  0  0  0
   -7.1442    0.9005   -1.3285 H   0  0  0  0  0  0  0  0  0  0  0  0
   -5.9130   -1.2120   -0.4603 H   0  0  0  0  0  0  0  0  0  0  0  0
   -5.8975   -0.6630    1.2472 H   0  0  0  0  0  0  0  0  0  0  0  0
   -3.7073   -1.6988    1.0368 H   0  0  0  0  0  0  0  0  0  0  0  0
   -3.5295   -1.1417   -0.6269 H   0  0  0  0  0  0  0  0  0  0  0  0
   -3.3784    0.5941    1.9121 H   0  0  0  0  0  0  0  0  0  0  0  0
   -1.9396   -0.7610    2.7367 H   0  0  0  0  0  0  0  0  0  0  0  0
    0.0371   -1.9363    3.5642 H   0  0  0  0  0  0  0  0  0  0  0  0
    2.1321   -1.9380    2.2772 H   0  0  0  0  0  0  0  0  0  0  0  0
    3.3506   -1.2601    0.4352 H   0  0  0  0  0  0  0  0  0  0  0  0
    4.3215   -1.4307   -2.2418 H   0  0  0  0  0  0  0  0  0  0  0  0
    5.8351    0.1929   -3.0258 H   0  0  0  0  0  0  0  0  0  0  0  0
    4.4161    1.2491   -2.9361 H   0  0  0  0  0  0  0  0  0  0  0  0
    6.6031    1.9465   -1.5399 H   0  0  0  0  0  0  0  0  0  0  0  0
    5.0381    1.9811   -0.7032 H   0  0  0  0  0  0  0  0  0  0  0  0
    6.2358    0.4955    0.7377 H   0  0  0  0  0  0  0  0  0  0  0  0
    7.1283   -0.2313   -0.6171 H   0  0  0  0  0  0  0  0  0  0  0  0
    0.2391    0.4883   -0.7512 H   0  0  0  0  0  0  0  0  0  0  0  0
  1  2  1  0
  2  3  1  0
  3  4  1  0
  4  5  1  0
  5  6  1  0
  6  7  1  0
  7  8  2  0
  8  9  1  0
  9 10  2  0
 10 11  1  0
 11 12  1  0
 12 13  1  0
 13 14  2  0
 13 15  1  0
 15 16  1  0
 16 17  1  0
 17 18  1  0
 18 19  1  0
 11 20  2  0
  5 21  1  0
 21 22  2  0
 21  2  1  0
 20  7  1  0
 19 15  1  0
  1 23  1  0
  1 24  1  0
  1 25  1  0
  3 26  1  0
  3 27  1  0
  4 28  1  0
  4 29  1  0
  5 30  1  0
  8 31  1  0
  9 32  1  0
 10 33  1  0
 12 34  1  0
 15 35  1  0
 16 36  1  0
 16 37  1  0
 17 38  1  0
 17 39  1  0
 18 40  1  0
 18 41  1  0
 20 42  1  0
M  END
