LIG
     RDKit          3D

 41 42  0  0  0  0  0  0  0  0999 V2000
   30.4865   14.4541    1.9806 C   0  0  0  0  0  0  0  0  0  0  0  0
   31.1385   13.9285    3.2260 C   0  0  0  0  0  0  0  0  0  0  0  0
   32.2615   13.4350    3.1501 O   0  0  0  0  0  0  0  0  0  0  0  0
   30.3253   14.0484    4.3603 N   0  0  0  0  0  0  0  0  0  0  0  0
   30.5809   13.3485    5.5643 C   0  0  0  0  0  0  0  0  0  0  0  0
   29.5423   12.9754    6.4018 C   0  0  0  0  0  0  0  0  0  0  0  0
   29.7614   11.9509    7.3253 C   0  0  0  0  0  0  0  0  0  0  0  0
   30.9881   11.2681    7.3767 C   0  0  0  0  0  0  0  0  0  0  0  0
   31.0473    9.9558    8.1015 C   0  0  0  0  0  0  0  0  0  0  0  0
   32.0659   11.7921    6.6699 C   0  0  0  0  0  0  0  0  0  0  0  0
   33.2803   11.1709    6.7646 O   0  0  0  0  0  0  0  0  0  0  0  0
   34.2680   11.6144    5.8364 C   0  0  0  0  0  0  0  0  0  0  0  0
   34.8665   13.0140    6.1237 C   0  0  0  0  0  0  0  0  0  0  0  0
   34.5638   13.6607    7.1305 O   0  0  0  0  0  0  0  0  0  0  0  0
   35.7008   13.5430    5.1356 N   0  0  0  0  0  0  0  0  0  0  0  0
   35.8743   14.9933    5.1478 C   0  0  0  0  0  0  0  0  0  0  0  0
   37.1297   15.4246    4.3907 C   0  0  0  0  0  0  0  0  0  0  0  0
   37.1643   14.8737    3.0646 O   0  0  0  0  0  0  0  0  0  0  0  0
   37.1338   13.4445    3.1218 C   0  0  0  0  0  0  0  0  0  0  0  0
   35.8687   12.9367    3.8156 C   0  0  0  0  0  0  0  0  0  0  0  0
   31.8506   12.8842    5.8370 C   0  0  0  0  0  0  0  0  0  0  0  0
   31.0934   15.2694    1.5772 H   0  0  0  0  0  0  0  0  0  0  0  0
   29.4791   14.8344    2.1693 H   0  0  0  0  0  0  0  0  0  0  0  0
   30.4167   13.6475    1.2456 H   0  0  0  0  0  0  0  0  0  0  0  0
   29.3507   14.3030    4.2259 H   0  0  0  0  0  0  0  0  0  0  0  0
   28.5407   13.3810    6.2930 H   0  0  0  0  0  0  0  0  0  0  0  0
   28.9284   11.6052    7.9303 H   0  0  0  0  0  0  0  0  0  0  0  0
   30.2907    9.2716    7.7056 H   0  0  0  0  0  0  0  0  0  0  0  0
   32.0044    9.4484    7.9762 H   0  0  0  0  0  0  0  0  0  0  0  0
   30.8381   10.0945    9.1610 H   0  0  0  0  0  0  0  0  0  0  0  0
   33.8572   11.5654    4.8198 H   0  0  0  0  0  0  0  0  0  0  0  0
   35.0831   10.8869    5.8404 H   0  0  0  0  0  0  0  0  0  0  0  0
   34.9835   15.3941    4.6505 H   0  0  0  0  0  0  0  0  0  0  0  0
   35.8994   15.3707    6.1737 H   0  0  0  0  0  0  0  0  0  0  0  0
   37.1665   16.5133    4.2961 H   0  0  0  0  0  0  0  0  0  0  0  0
   38.0342   15.1029    4.9196 H   0  0  0  0  0  0  0  0  0  0  0  0
   38.0331   13.0900    3.6400 H   0  0  0  0  0  0  0  0  0  0  0  0
   37.1726   13.0670    2.0952 H   0  0  0  0  0  0  0  0  0  0  0  0
   34.9841   13.2029    3.2266 H   0  0  0  0  0  0  0  0  0  0  0  0
   35.9158   11.8475    3.8965 H   0  0  0  0  0  0  0  0  0  0  0  0
   32.6602   13.3426    5.2936 H   0  0  0  0  0  0  0  0  0  0  0  0
  1  2  1  0
  2  3  2  0
  2  4  1  0
  4  5  1  0
  5  6  2  0
  6  7  1  0
  7  8  2  0
  8  9  1  0
  8 10  1  0
 10 11  1  0
 11 12  1  0
 12 13  1  0
 13 14  2  0
 13 15  1  0
 15 16  1  0
 16 17  1  0
 17 18  1  0
 18 19  1  0
 19 20  1  0
 10 21  2  0
 21  5  1  0
 20 15  1  0
  1 22  1  0
  1 23  1  0
  1 24  1  0
  4 25  1  0
  6 26  1  0
  7 27  1  0
  9 28  1  0
  9 29  1  0
  9 30  1  0
 12 31  1  0
 12 32  1  0
 16 33  1  0
 16 34  1  0
 17 35  1  0
 17 36  1  0
 19 37  1  0
 19 38  1  0
 20 39  1  0
 20 40  1  0
 21 41  1  0
M  END
