LIG
     RDKit          3D

 47 48  0  0  0  0  0  0  0  0999 V2000
   34.4525    9.8159    4.6159 C   0  0  0  0  0  0  0  0  0  0  0  0
   33.3703   10.3463    5.5063 C   0  0  0  0  0  0  0  0  0  0  0  0
   32.7032    9.4362    6.3347 C   0  0  0  0  0  0  0  0  0  0  0  0
   31.7129    9.8446    7.2271 C   0  0  0  0  0  0  0  0  0  0  0  0
   30.9908    8.8311    8.0714 C   0  0  0  0  0  0  0  0  0  0  0  0
   31.4048   11.2020    7.3104 C   0  0  0  0  0  0  0  0  0  0  0  0
   30.4138   11.4952    8.1936 O   0  0  0  0  0  0  0  0  0  0  0  0
   29.8072   12.7663    8.1464 C   0  0  0  0  0  0  0  0  0  0  0  0
   30.4860   13.7466    9.1000 C   0  0  0  0  0  0  0  0  0  0  0  0
   31.7062   13.7779    9.2739 O   0  0  0  0  0  0  0  0  0  0  0  0
   29.6395   14.5954    9.8017 N   0  0  0  0  0  0  0  0  0  0  0  0
   30.1972   15.2338   10.9777 C   0  0  0  0  0  0  0  0  0  0  0  0
   28.4299   15.1299    9.2031 C   0  0  0  0  0  0  0  0  0  0  0  0
   32.0869   12.1269    6.5174 C   0  0  0  0  0  0  0  0  0  0  0  0
   33.0094   11.6953    5.5609 C   0  0  0  0  0  0  0  0  0  0  0  0
   33.4925   12.6588    4.6521 N   0  0  0  0  0  0  0  0  0  0  0  0
   33.3665   12.4853    3.2810 C   0  0  0  0  0  0  0  0  0  0  0  0
   32.9861   11.4649    2.7140 O   0  0  0  0  0  0  0  0  0  0  0  0
   33.7200   13.7326    2.4780 C   0  0  0  0  0  0  0  0  0  0  0  0
   35.1345   13.6640    1.9385 C   0  0  0  0  0  0  0  0  0  0  0  0
   35.4960   15.1207    1.8348 C   0  0  0  0  0  0  0  0  0  0  0  0
   34.8293   15.6876    3.0664 C   0  0  0  0  0  0  0  0  0  0  0  0
   33.6237   14.9282    3.2739 O   0  0  0  0  0  0  0  0  0  0  0  0
   34.0320    9.4078    3.6928 H   0  0  0  0  0  0  0  0  0  0  0  0
   35.1949   10.5823    4.3728 H   0  0  0  0  0  0  0  0  0  0  0  0
   34.9983    9.0087    5.1162 H   0  0  0  0  0  0  0  0  0  0  0  0
   32.9719    8.3857    6.2873 H   0  0  0  0  0  0  0  0  0  0  0  0
   31.4187    7.8410    7.9240 H   0  0  0  0  0  0  0  0  0  0  0  0
   31.0662    9.0728    9.1329 H   0  0  0  0  0  0  0  0  0  0  0  0
   29.9317    8.7900    7.8078 H   0  0  0  0  0  0  0  0  0  0  0  0
   29.7445   13.1890    7.1376 H   0  0  0  0  0  0  0  0  0  0  0  0
   28.7803   12.5946    8.4795 H   0  0  0  0  0  0  0  0  0  0  0  0
   30.6444   16.1905   10.7007 H   0  0  0  0  0  0  0  0  0  0  0  0
   30.9832   14.6183   11.4146 H   0  0  0  0  0  0  0  0  0  0  0  0
   29.4123   15.3599   11.7272 H   0  0  0  0  0  0  0  0  0  0  0  0
   27.6549   15.1950    9.9670 H   0  0  0  0  0  0  0  0  0  0  0  0
   28.6519   16.1147    8.7845 H   0  0  0  0  0  0  0  0  0  0  0  0
   28.0526   14.5225    8.3796 H   0  0  0  0  0  0  0  0  0  0  0  0
   31.8721   13.1853    6.5886 H   0  0  0  0  0  0  0  0  0  0  0  0
   33.4404   13.6373    4.9224 H   0  0  0  0  0  0  0  0  0  0  0  0
   32.9885   13.8360    1.6680 H   0  0  0  0  0  0  0  0  0  0  0  0
   35.8052   13.1570    2.6432 H   0  0  0  0  0  0  0  0  0  0  0  0
   35.1956   13.1352    0.9828 H   0  0  0  0  0  0  0  0  0  0  0  0
   35.0473   15.5520    0.9322 H   0  0  0  0  0  0  0  0  0  0  0  0
   36.5727   15.3067    1.8071 H   0  0  0  0  0  0  0  0  0  0  0  0
   35.4608   15.5544    3.9507 H   0  0  0  0  0  0  0  0  0  0  0  0
   34.5798   16.7458    2.9552 H   0  0  0  0  0  0  0  0  0  0  0  0
  1  2  1  0
  2  3  2  0
  3  4  1  0
  4  5  1  0
  4  6  2  0
  6  7  1  0
  7  8  1  0
  8  9  1  0
  9 10  2  0
  9 11  1  0
 11 12  1  0
 11 13  1  0
  6 14  1  0
 14 15  2  0
 15 16  1  0
 16 17  1  0
 17 18  2  0
 17 19  1  0
 19 20  1  0
 20 21  1  0
 21 22  1  0
 22 23  1  0
 15  2  1  0
 23 19  1  0
  1 24  1  0
  1 25  1  0
  1 26  1  0
  3 27  1  0
  5 28  1  0
  5 29  1  0
  5 30  1  0
  8 31  1  0
  8 32  1  0
 12 33  1  0
 12 34  1  0
 12 35  1  0
 13 36  1  0
 13 37  1  0
 13 38  1  0
 14 39  1  0
 16 40  1  0
 19 41  1  0
 20 42  1  0
 20 43  1  0
 21 44  1  0
 21 45  1  0
 22 46  1  0
 22 47  1  0
M  END
