LIG
     RDKit          3D

 41 41  0  0  0  0  0  0  0  0999 V2000
   28.5340   14.0390    8.5970 C   0  0  0  0  0  0  0  0  0  0  0  0
   29.3000   13.3530    7.8990 C   0  0  0  0  0  0  0  0  0  0  0  0
   29.3990   13.5140    6.5850 O   0  0  0  0  0  0  0  0  0  0  0  0
   31.1650   13.3330    8.0150 N   0  0  0  0  0  0  0  0  0  0  0  0
   31.5450   11.9340    7.6020 C   0  0  0  0  0  0  0  0  0  0  0  0
   30.7220   10.8640    7.9390 C   0  0  0  0  0  0  0  0  0  0  0  0
   31.0170    9.5590    7.5720 C   0  0  0  0  0  0  0  0  0  0  0  0
   32.1560    9.3390    6.8090 C   0  0  0  0  0  0  0  0  0  0  0  0
   33.0110   10.3720    6.4380 C   0  0  0  0  0  0  0  0  0  0  0  0
   34.1980   10.0910    5.5530 O   0  0  0  0  0  0  0  0  0  0  0  0
   35.1759    9.3933    6.2934 C   0  0  0  0  0  0  0  0  0  0  0  0
   35.3821    8.0173    5.6489 C   0  0  0  0  0  0  0  0  0  0  0  0
   34.6088    7.6201    4.7698 O   0  0  0  0  0  0  0  0  0  0  0  0
   36.4504    7.2477    6.0955 N   0  0  0  0  0  0  0  0  0  0  0  0
   37.3252    7.5941    7.2070 C   0  0  0  0  0  0  0  0  0  0  0  0
   36.6710    5.9369    5.5036 C   0  0  0  0  0  0  0  0  0  0  0  0
   32.7080   11.6650    6.8730 C   0  0  0  0  0  0  0  0  0  0  0  0
   33.6520   12.7090    6.6590 N   0  0  0  0  0  0  0  0  0  0  0  0
   34.4250   13.2280    7.6390 C   0  0  0  0  0  0  0  0  0  0  0  0
   34.9120   12.5690    8.5560 O   0  0  0  0  0  0  0  0  0  0  0  0
   34.6680   14.7180    7.5670 C   0  0  0  0  0  0  0  0  0  0  0  0
   35.0470   15.1300    6.2680 O   0  0  0  0  0  0  0  0  0  0  0  0
   27.7439   13.4577    9.1865 H   0  0  0  0  0  0  0  0  0  0  0  0
   28.5145   13.8197    9.7233 H   0  0  0  0  0  0  0  0  0  0  0  0
   27.4208   13.9563    8.3400 H   0  0  0  0  0  0  0  0  0  0  0  0
   31.4533   13.9909    8.2121 H   0  0  0  0  0  0  0  0  0  0  0  0
   29.8120   11.0069    8.5256 H   0  0  0  0  0  0  0  0  0  0  0  0
   30.3899    8.7420    7.8799 H   0  0  0  0  0  0  0  0  0  0  0  0
   32.3925    8.3018    6.4994 H   0  0  0  0  0  0  0  0  0  0  0  0
   36.0953    9.9770    6.1863 H   0  0  0  0  0  0  0  0  0  0  0  0
   34.9480    9.2526    7.3573 H   0  0  0  0  0  0  0  0  0  0  0  0
   37.2013    6.8449    7.9950 H   0  0  0  0  0  0  0  0  0  0  0  0
   38.3605    7.5810    6.8540 H   0  0  0  0  0  0  0  0  0  0  0  0
   37.1116    8.5774    7.6264 H   0  0  0  0  0  0  0  0  0  0  0  0
   36.4189    5.1723    6.2443 H   0  0  0  0  0  0  0  0  0  0  0  0
   36.0616    5.7785    4.6110 H   0  0  0  0  0  0  0  0  0  0  0  0
   37.7259    5.8449    5.2277 H   0  0  0  0  0  0  0  0  0  0  0  0
   33.6962   13.0771    5.7719 H   0  0  0  0  0  0  0  0  0  0  0  0
   33.7609   15.2694    7.8454 H   0  0  0  0  0  0  0  0  0  0  0  0
   35.4771   14.9844    8.2587 H   0  0  0  0  0  0  0  0  0  0  0  0
   35.9136   14.7106    6.0932 H   0  0  0  0  0  0  0  0  0  0  0  0
  1  2  1  0
  2  3  2  0
  2  4  1  0
  4  5  1  0
  5  6  4  0
  6  7  4  0
  7  8  4  0
  8  9  4  0
  9 10  1  0
 10 11  1  0
 11 12  1  0
 12 13  2  0
 12 14  1  0
 14 15  1  0
 14 16  1  0
  9 17  4  0
 17 18  1  0
 18 19  1  0
 19 20  2  0
 19 21  1  0
 21 22  1  0
 17  5  4  0
  1 23  1  0
  1 24  1  0
  1 25  1  0
  4 26  1  0
  6 27  1  0
  7 28  1  0
  8 29  1  0
 11 30  1  0
 11 31  1  0
 15 32  1  0
 15 33  1  0
 15 34  1  0
 16 35  1  0
 16 36  1  0
 16 37  1  0
 18 38  1  0
 21 39  1  0
 21 40  1  0
 22 41  1  0
M  END
