LIG
     RDKit          3D

 42 44  0  0  0  0  0  0  0  0999 V2000
   27.7216   15.6790    9.0539 C   0  0  0  0  0  0  0  0  0  0  0  0
   28.4189   14.5742    8.5254 N   0  0  0  0  0  0  0  0  0  0  0  0
   28.1426   14.0805    7.2093 C   0  0  0  0  0  0  0  0  0  0  0  0
   29.0639   12.9030    7.1196 C   0  0  0  0  0  0  0  0  0  0  0  0
   30.3054   13.3988    7.8589 C   0  0  0  0  0  0  0  0  0  0  0  0
   30.9187   12.3725    8.5975 O   0  0  0  0  0  0  0  0  0  0  0  0
   31.5529   11.4953    7.7820 C   0  0  0  0  0  0  0  0  0  0  0  0
   31.2418   10.1510    7.8864 C   0  0  0  0  0  0  0  0  0  0  0  0
   31.9167    9.2591    7.0699 C   0  0  0  0  0  0  0  0  0  0  0  0
   32.8057    9.7398    6.1044 C   0  0  0  0  0  0  0  0  0  0  0  0
   33.3920    8.8560    5.2950 F   0  0  0  0  0  0  0  0  0  0  0  0
   33.0564   11.1043    5.9567 C   0  0  0  0  0  0  0  0  0  0  0  0
   33.7856   11.6339    4.8704 N   0  0  0  0  0  0  0  0  0  0  0  0
   33.7037   12.9633    4.4519 C   0  0  0  0  0  0  0  0  0  0  0  0
   33.0045   13.8406    4.9649 O   0  0  0  0  0  0  0  0  0  0  0  0
   34.5820   13.2714    3.2395 C   0  0  0  0  0  0  0  0  0  0  0  0
   33.9870   14.3936    2.3995 C   0  0  0  0  0  0  0  0  0  0  0  0
   34.5337   14.0872    1.0319 C   0  0  0  0  0  0  0  0  0  0  0  0
   34.5180   12.5757    1.0181 C   0  0  0  0  0  0  0  0  0  0  0  0
   34.7178   12.1374    2.3707 O   0  0  0  0  0  0  0  0  0  0  0  0
   32.5166   11.9518    6.8998 C   0  0  0  0  0  0  0  0  0  0  0  0
   29.7778   14.4414    8.8147 C   0  0  0  0  0  0  0  0  0  0  0  0
   30.4214   15.0962    9.6237 O   0  0  0  0  0  0  0  0  0  0  0  0
   28.2111   16.5936    8.7189 H   0  0  0  0  0  0  0  0  0  0  0  0
   27.7540   15.5459   10.1304 H   0  0  0  0  0  0  0  0  0  0  0  0
   26.6887   15.6436    8.7315 H   0  0  0  0  0  0  0  0  0  0  0  0
   27.0959   13.7953    7.1013 H   0  0  0  0  0  0  0  0  0  0  0  0
   28.4093   14.8467    6.4756 H   0  0  0  0  0  0  0  0  0  0  0  0
   29.2798   12.6224    6.0848 H   0  0  0  0  0  0  0  0  0  0  0  0
   28.6317   12.0280    7.6157 H   0  0  0  0  0  0  0  0  0  0  0  0
   30.9804   13.9139    7.1771 H   0  0  0  0  0  0  0  0  0  0  0  0
   30.5135    9.7975    8.6105 H   0  0  0  0  0  0  0  0  0  0  0  0
   31.7438    8.1920    7.1669 H   0  0  0  0  0  0  0  0  0  0  0  0
   34.2385   10.9825    4.2310 H   0  0  0  0  0  0  0  0  0  0  0  0
   35.5820   13.5389    3.6001 H   0  0  0  0  0  0  0  0  0  0  0  0
   34.2654   15.3869    2.7644 H   0  0  0  0  0  0  0  0  0  0  0  0
   32.8913   14.3389    2.3785 H   0  0  0  0  0  0  0  0  0  0  0  0
   35.5657   14.4499    0.9564 H   0  0  0  0  0  0  0  0  0  0  0  0
   33.9561   14.5290    0.2158 H   0  0  0  0  0  0  0  0  0  0  0  0
   35.2954   12.1527    0.3759 H   0  0  0  0  0  0  0  0  0  0  0  0
   33.5465   12.1937    0.6867 H   0  0  0  0  0  0  0  0  0  0  0  0
   32.8326   12.9867    6.9603 H   0  0  0  0  0  0  0  0  0  0  0  0
  1  2  1  0
  2  3  1  0
  3  4  1  0
  4  5  1  0
  5  6  1  0
  6  7  1  0
  7  8  2  0
  8  9  1  0
  9 10  2  0
 10 11  1  0
 10 12  1  0
 12 13  1  0
 13 14  1  0
 14 15  2  0
 14 16  1  0
 16 17  1  0
 17 18  1  0
 18 19  1  0
 19 20  1  0
 12 21  2  0
  5 22  1  0
 22 23  2  0
 22  2  1  0
 21  7  1  0
 20 16  1  0
  1 24  1  0
  1 25  1  0
  1 26  1  0
  3 27  1  0
  3 28  1  0
  4 29  1  0
  4 30  1  0
  5 31  1  0
  8 32  1  0
  9 33  1  0
 13 34  1  0
 16 35  1  0
 17 36  1  0
 17 37  1  0
 18 38  1  0
 18 39  1  0
 19 40  1  0
 19 41  1  0
 21 42  1  0
M  END
