LIG
     RDKit          3D

 45 46  0  0  0  0  0  0  0  0999 V2000
   28.5168   14.6653   10.9786 C   0  0  0  0  0  0  0  0  0  0  0  0
   29.8476   14.8424   10.4379 N   0  0  0  0  0  0  0  0  0  0  0  0
   30.8011   15.5409   11.2837 C   0  0  0  0  0  0  0  0  0  0  0  0
   30.3545   13.9117    9.5392 C   0  0  0  0  0  0  0  0  0  0  0  0
   31.5715   13.7308    9.4580 O   0  0  0  0  0  0  0  0  0  0  0  0
   29.3591   13.1762    8.6093 C   0  0  0  0  0  0  0  0  0  0  0  0
   29.4484   11.7612    8.5445 O   0  0  0  0  0  0  0  0  0  0  0  0
   30.5023   11.1440    7.9572 C   0  0  0  0  0  0  0  0  0  0  0  0
   30.6893    9.7944    8.2463 C   0  0  0  0  0  0  0  0  0  0  0  0
   31.6800    9.0681    7.5920 C   0  0  0  0  0  0  0  0  0  0  0  0
   32.5048    9.6962    6.6619 C   0  0  0  0  0  0  0  0  0  0  0  0
   32.3293   11.0464    6.3827 C   0  0  0  0  0  0  0  0  0  0  0  0
   33.1653   11.5646    5.4358 O   0  0  0  0  0  0  0  0  0  0  0  0
   32.9231   12.9011    5.0052 C   0  0  0  0  0  0  0  0  0  0  0  0
   33.5305   13.8694    5.9973 C   0  0  0  0  0  0  0  0  0  0  0  0
   33.1380   13.8854    7.1636 O   0  0  0  0  0  0  0  0  0  0  0  0
   34.5654   14.6862    5.6051 N   0  0  0  0  0  0  0  0  0  0  0  0
   35.5427   14.9105    6.6640 C   0  0  0  0  0  0  0  0  0  0  0  0
   36.5933   13.8048    6.5214 C   0  0  0  0  0  0  0  0  0  0  0  0
   37.2844   13.9749    5.2625 O   0  0  0  0  0  0  0  0  0  0  0  0
   36.3592   13.7961    4.1713 C   0  0  0  0  0  0  0  0  0  0  0  0
   35.1711   14.7606    4.2744 C   0  0  0  0  0  0  0  0  0  0  0  0
   31.3182   11.7536    7.0264 C   0  0  0  0  0  0  0  0  0  0  0  0
   28.4593   15.1260   11.9658 H   0  0  0  0  0  0  0  0  0  0  0  0
   27.8016   15.1113   10.2846 H   0  0  0  0  0  0  0  0  0  0  0  0
   28.2719   13.6112   11.0966 H   0  0  0  0  0  0  0  0  0  0  0  0
   30.4088   16.4942   11.6319 H   0  0  0  0  0  0  0  0  0  0  0  0
   31.0003   14.9147   12.1460 H   0  0  0  0  0  0  0  0  0  0  0  0
   31.7384   15.7274   10.7537 H   0  0  0  0  0  0  0  0  0  0  0  0
   28.3303   13.3883    8.9040 H   0  0  0  0  0  0  0  0  0  0  0  0
   29.4328   13.6265    7.6122 H   0  0  0  0  0  0  0  0  0  0  0  0
   30.0455    9.2980    8.9660 H   0  0  0  0  0  0  0  0  0  0  0  0
   31.7967    8.0126    7.8109 H   0  0  0  0  0  0  0  0  0  0  0  0
   33.2765    9.1256    6.1525 H   0  0  0  0  0  0  0  0  0  0  0  0
   31.8642   13.1288    4.8428 H   0  0  0  0  0  0  0  0  0  0  0  0
   33.3842   12.9725    4.0216 H   0  0  0  0  0  0  0  0  0  0  0  0
   35.9897   15.8845    6.4868 H   0  0  0  0  0  0  0  0  0  0  0  0
   35.1021   14.8975    7.6645 H   0  0  0  0  0  0  0  0  0  0  0  0
   36.1322   12.8143    6.5191 H   0  0  0  0  0  0  0  0  0  0  0  0
   37.3289   13.8120    7.3277 H   0  0  0  0  0  0  0  0  0  0  0  0
   36.9055   13.9706    3.2392 H   0  0  0  0  0  0  0  0  0  0  0  0
   36.0211   12.7531    4.1691 H   0  0  0  0  0  0  0  0  0  0  0  0
   35.5447   15.7785    4.1386 H   0  0  0  0  0  0  0  0  0  0  0  0
   34.4349   14.5864    3.4873 H   0  0  0  0  0  0  0  0  0  0  0  0
   31.1405   12.7925    6.8024 H   0  0  0  0  0  0  0  0  0  0  0  0
  1  2  1  0
  2  3  1  0
  2  4  1  0
  4  5  2  0
  4  6  1  0
  6  7  1  0
  7  8  1  0
  8  9  2  0
  9 10  1  0
 10 11  2  0
 11 12  1  0
 12 13  1  0
 13 14  1  0
 14 15  1  0
 15 16  2  0
 15 17  1  0
 17 18  1  0
 18 19  1  0
 19 20  1  0
 20 21  1  0
 21 22  1  0
 12 23  2  0
 23  8  1  0
 22 17  1  0
  1 24  1  0
  1 25  1  0
  1 26  1  0
  3 27  1  0
  3 28  1  0
  3 29  1  0
  6 30  1  0
  6 31  1  0
  9 32  1  0
 10 33  1  0
 11 34  1  0
 14 35  1  0
 14 36  1  0
 18 37  1  0
 18 38  1  0
 19 39  1  0
 19 40  1  0
 21 41  1  0
 21 42  1  0
 22 43  1  0
 22 44  1  0
 23 45  1  0
M  END
