LIG
     RDKit          3D

 38 39  0  0  0  0  0  0  0  0999 V2000
   28.5580   15.7160    7.2730 N   0  0  0  0  0  0  0  0  0  0  0  0
   28.5830   14.6820    7.7450 C   0  0  0  0  0  0  0  0  0  0  0  0
   28.7130   13.3600    8.3510 C   0  0  0  0  0  0  0  0  0  0  0  0
   29.7090   12.5130    7.5840 C   0  0  0  0  0  0  0  0  0  0  0  0
   29.9180   12.6920    6.3980 O   0  0  0  0  0  0  0  0  0  0  0  0
   30.5678   11.1046    8.4324 N   0  0  0  0  0  0  0  0  0  0  0  0
   32.6580    9.2460    8.1260 C   0  0  0  0  0  0  0  0  0  0  0  0
   31.5630    9.4800    8.9430 C   0  0  0  0  0  0  0  0  0  0  0  0
   31.1650   10.7950    9.1290 N   0  0  0  0  0  0  0  0  0  0  0  0
   31.8380   11.8440    8.5230 C   0  0  0  0  0  0  0  0  0  0  0  0
   32.8900   11.5720    7.6690 C   0  0  0  0  0  0  0  0  0  0  0  0
   33.3940   12.4720    6.7660 O   0  0  0  0  0  0  0  0  0  0  0  0
   32.5070   13.2300    6.0470 C   0  0  0  0  0  0  0  0  0  0  0  0
   32.8430   14.5690    6.5820 C   0  0  0  0  0  0  0  0  0  0  0  0
   32.2450   15.0040    7.5510 O   0  0  0  0  0  0  0  0  0  0  0  0
   33.9260   15.1770    6.0590 N   0  0  0  0  0  0  0  0  0  0  0  0
   34.5050   15.1130    4.7140 C   0  0  0  0  0  0  0  0  0  0  0  0
   35.9790   14.7950    4.8070 C   0  0  0  0  0  0  0  0  0  0  0  0
   36.6530   15.7410    5.6230 O   0  0  0  0  0  0  0  0  0  0  0  0
   36.2000   15.5640    6.9400 C   0  0  0  0  0  0  0  0  0  0  0  0
   34.7260   15.9040    7.0650 C   0  0  0  0  0  0  0  0  0  0  0  0
   33.3470   10.2740    7.4930 C   0  0  0  0  0  0  0  0  0  0  0  0
   29.0560   13.4385    9.3912 H   0  0  0  0  0  0  0  0  0  0  0  0
   27.7434   12.8453    8.3820 H   0  0  0  0  0  0  0  0  0  0  0  0
   30.0152   10.8544    9.2460 H   0  0  0  0  0  0  0  0  0  0  0  0
   31.0007    8.7637    9.4359 H   0  0  0  0  0  0  0  0  0  0  0  0
   31.5029   12.8115    8.7545 H   0  0  0  0  0  0  0  0  0  0  0  0
   32.7355   13.2042    5.0081 H   0  0  0  0  0  0  0  0  0  0  0  0
   31.5030   13.0044    6.3203 H   0  0  0  0  0  0  0  0  0  0  0  0
   33.9707   14.3189    4.1864 H   0  0  0  0  0  0  0  0  0  0  0  0
   34.3435   16.0562    4.1930 H   0  0  0  0  0  0  0  0  0  0  0  0
   36.1337   13.8091    5.2408 H   0  0  0  0  0  0  0  0  0  0  0  0
   36.4423   14.8111    3.8205 H   0  0  0  0  0  0  0  0  0  0  0  0
   36.3702   14.5251    7.2210 H   0  0  0  0  0  0  0  0  0  0  0  0
   36.7920   16.1981    7.5963 H   0  0  0  0  0  0  0  0  0  0  0  0
   34.5567   16.9713    6.8732 H   0  0  0  0  0  0  0  0  0  0  0  0
   34.3590   15.6780    8.0724 H   0  0  0  0  0  0  0  0  0  0  0  0
   34.2041   10.0719    6.8865 H   0  0  0  0  0  0  0  0  0  0  0  0
  1  2  3  0
  2  3  1  0
  3  4  1  0
  4  5  2  0
  4  6  1  0
  6  7  1  0
  7  8  4  0
  8  9  4  0
  9 10  4  0
 10 11  4  0
 11 12  1  0
 12 13  1  0
 13 14  1  0
 14 15  2  0
 14 16  1  0
 16 17  1  0
 17 18  1  0
 18 19  1  0
 19 20  1  0
 20 21  1  0
 11 22  4  0
 22  7  4  0
 21 16  1  0
  3 23  1  0
  3 24  1  0
  6 25  1  0
  8 26  1  0
 10 27  1  0
 13 28  1  0
 13 29  1  0
 17 30  1  0
 17 31  1  0
 18 32  1  0
 18 33  1  0
 20 34  1  0
 20 35  1  0
 21 36  1  0
 21 37  1  0
 22 38  1  0
M  END
$$$$
LIG
     RDKit          3D

 38 39  0  0  0  0  0  0  0  0999 V2000
   28.5580   15.7160    7.2730 N   0  0  0  0  0  0  0  0  0  0  0  0
   28.5830   14.6820    7.7450 C   0  0  0  0  0  0  0  0  0  0  0  0
   28.7130   13.3600    8.3510 C   0  0  0  0  0  0  0  0  0  0  0  0
   29.7090   12.5130    7.5840 C   0  0  0  0  0  0  0  0  0  0  0  0
   29.9180   12.6920    6.3980 O   0  0  0  0  0  0  0  0  0  0  0  0
   30.5618   11.0983    8.4274 N   0  0  0  0  0  0  0  0  0  0  0  0
   32.6580    9.2460    8.1260 C   0  0  0  0  0  0  0  0  0  0  0  0
   31.5630    9.4800    8.9430 C   0  0  0  0  0  0  0  0  0  0  0  0
   31.1650   10.7950    9.1290 N   0  0  0  0  0  0  0  0  0  0  0  0
   31.8380   11.8440    8.5230 C   0  0  0  0  0  0  0  0  0  0  0  0
   32.8900   11.5720    7.6690 C   0  0  0  0  0  0  0  0  0  0  0  0
   33.3940   12.4720    6.7660 O   0  0  0  0  0  0  0  0  0  0  0  0
   32.5070   13.2300    6.0470 C   0  0  0  0  0  0  0  0  0  0  0  0
   32.8430   14.5690    6.5820 C   0  0  0  0  0  0  0  0  0  0  0  0
   32.2450   15.0040    7.5510 O   0  0  0  0  0  0  0  0  0  0  0  0
   33.9260   15.1770    6.0590 N   0  0  0  0  0  0  0  0  0  0  0  0
   34.7260   15.9040    7.0650 C   0  0  0  0  0  0  0  0  0  0  0  0
   36.2000   15.5640    6.9400 C   0  0  0  0  0  0  0  0  0  0  0  0
   36.6530   15.7410    5.6230 O   0  0  0  0  0  0  0  0  0  0  0  0
   35.9790   14.7950    4.8070 C   0  0  0  0  0  0  0  0  0  0  0  0
   34.5050   15.1130    4.7140 C   0  0  0  0  0  0  0  0  0  0  0  0
   33.3470   10.2740    7.4930 C   0  0  0  0  0  0  0  0  0  0  0  0
   27.7482   12.8362    8.3631 H   0  0  0  0  0  0  0  0  0  0  0  0
   29.0375   13.4368    9.3969 H   0  0  0  0  0  0  0  0  0  0  0  0
   30.0443   10.8883    9.2743 H   0  0  0  0  0  0  0  0  0  0  0  0
   31.0043    8.7632    9.4382 H   0  0  0  0  0  0  0  0  0  0  0  0
   31.4872   12.7980    8.7822 H   0  0  0  0  0  0  0  0  0  0  0  0
   31.5116   12.9738    6.2040 H   0  0  0  0  0  0  0  0  0  0  0  0
   32.8231   13.2003    5.0437 H   0  0  0  0  0  0  0  0  0  0  0  0
   34.5627   16.9681    6.8700 H   0  0  0  0  0  0  0  0  0  0  0  0
   34.3676   15.6781    8.0706 H   0  0  0  0  0  0  0  0  0  0  0  0
   36.7902   16.2155    7.6011 H   0  0  0  0  0  0  0  0  0  0  0  0
   36.3900   14.5255    7.2578 H   0  0  0  0  0  0  0  0  0  0  0  0
   36.4365   14.8229    3.8099 H   0  0  0  0  0  0  0  0  0  0  0  0
   36.1442   13.7871    5.2149 H   0  0  0  0  0  0  0  0  0  0  0  0
   33.9982   14.3694    4.1069 H   0  0  0  0  0  0  0  0  0  0  0  0
   34.3521   16.0975    4.2694 H   0  0  0  0  0  0  0  0  0  0  0  0
   34.2123   10.1046    6.8844 H   0  0  0  0  0  0  0  0  0  0  0  0
  1  2  3  0
  2  3  1  0
  3  4  1  0
  4  5  2  0
  4  6  1  0
  6  7  1  0
  7  8  4  0
  8  9  4  0
  9 10  4  0
 10 11  4  0
 11 12  1  0
 12 13  1  0
 13 14  1  0
 14 15  2  0
 14 16  1  0
 16 17  1  0
 17 18  1  0
 18 19  1  0
 19 20  1  0
 20 21  1  0
 11 22  4  0
 22  7  4  0
 21 16  1  0
  3 23  1  0
  3 24  1  0
  6 25  1  0
  8 26  1  0
 10 27  1  0
 13 28  1  0
 13 29  1  0
 17 30  1  0
 17 31  1  0
 18 32  1  0
 18 33  1  0
 20 34  1  0
 20 35  1  0
 21 36  1  0
 21 37  1  0
 22 38  1  0
M  END
$$$$
LIG
     RDKit          3D

 38 39  0  0  0  0  0  0  0  0999 V2000
   28.5580   15.7160    7.2730 N   0  0  0  0  0  0  0  0  0  0  0  0
   28.5830   14.6820    7.7450 C   0  0  0  0  0  0  0  0  0  0  0  0
   28.7130   13.3600    8.3510 C   0  0  0  0  0  0  0  0  0  0  0  0
   29.7090   12.5130    7.5840 C   0  0  0  0  0  0  0  0  0  0  0  0
   29.9180   12.6920    6.3980 O   0  0  0  0  0  0  0  0  0  0  0  0
   29.9578   11.5374    8.6473 N   0  0  0  0  0  0  0  0  0  0  0  0
   31.1650   10.7950    9.1290 C   0  0  0  0  0  0  0  0  0  0  0  0
   31.5630    9.4800    8.9430 C   0  0  0  0  0  0  0  0  0  0  0  0
   32.6580    9.2460    8.1260 N   0  0  0  0  0  0  0  0  0  0  0  0
   33.3470   10.2740    7.4930 C   0  0  0  0  0  0  0  0  0  0  0  0
   32.8900   11.5720    7.6690 C   0  0  0  0  0  0  0  0  0  0  0  0
   33.3940   12.4720    6.7660 O   0  0  0  0  0  0  0  0  0  0  0  0
   32.5070   13.2300    6.0470 C   0  0  0  0  0  0  0  0  0  0  0  0
   32.8430   14.5690    6.5820 C   0  0  0  0  0  0  0  0  0  0  0  0
   32.2450   15.0040    7.5510 O   0  0  0  0  0  0  0  0  0  0  0  0
   33.9260   15.1770    6.0590 N   0  0  0  0  0  0  0  0  0  0  0  0
   34.5050   15.1130    4.7140 C   0  0  0  0  0  0  0  0  0  0  0  0
   35.9790   14.7950    4.8070 C   0  0  0  0  0  0  0  0  0  0  0  0
   36.6530   15.7410    5.6230 O   0  0  0  0  0  0  0  0  0  0  0  0
   36.2000   15.5640    6.9400 C   0  0  0  0  0  0  0  0  0  0  0  0
   34.7260   15.9040    7.0650 C   0  0  0  0  0  0  0  0  0  0  0  0
   31.8380   11.8440    8.5230 C   0  0  0  0  0  0  0  0  0  0  0  0
   29.0464   13.4346    9.3914 H   0  0  0  0  0  0  0  0  0  0  0  0
   27.7466   12.8452    8.3553 H   0  0  0  0  0  0  0  0  0  0  0  0
   29.2907   11.2200    9.3430 H   0  0  0  0  0  0  0  0  0  0  0  0
   31.1198    8.6428    9.3597 H   0  0  0  0  0  0  0  0  0  0  0  0
   34.1641    9.9754    6.9268 H   0  0  0  0  0  0  0  0  0  0  0  0
   32.7434   13.2118    5.0095 H   0  0  0  0  0  0  0  0  0  0  0  0
   31.5034   12.9942    6.3092 H   0  0  0  0  0  0  0  0  0  0  0  0
   33.9825   14.3646    4.1197 H   0  0  0  0  0  0  0  0  0  0  0  0
   34.3494   16.0968    4.2651 H   0  0  0  0  0  0  0  0  0  0  0  0
   36.1376   13.8053    5.2361 H   0  0  0  0  0  0  0  0  0  0  0  0
   36.4401   14.8162    3.8211 H   0  0  0  0  0  0  0  0  0  0  0  0
   36.3764   14.5310    7.2299 H   0  0  0  0  0  0  0  0  0  0  0  0
   36.7888   16.2093    7.5903 H   0  0  0  0  0  0  0  0  0  0  0  0
   34.3379   15.5934    8.0436 H   0  0  0  0  0  0  0  0  0  0  0  0
   34.5673   16.9836    6.9652 H   0  0  0  0  0  0  0  0  0  0  0  0
   31.5675   12.8784    8.6933 H   0  0  0  0  0  0  0  0  0  0  0  0
  1  2  3  0
  2  3  1  0
  3  4  1  0
  4  5  2  0
  4  6  1  0
  6  7  1  0
  7  8  4  0
  8  9  4  0
  9 10  4  0
 10 11  4  0
 11 12  1  0
 12 13  1  0
 13 14  1  0
 14 15  2  0
 14 16  1  0
 16 17  1  0
 17 18  1  0
 18 19  1  0
 19 20  1  0
 20 21  1  0
 11 22  4  0
 22  7  4  0
 21 16  1  0
  3 23  1  0
  3 24  1  0
  6 25  1  0
  8 26  1  0
 10 27  1  0
 13 28  1  0
 13 29  1  0
 17 30  1  0
 17 31  1  0
 18 32  1  0
 18 33  1  0
 20 34  1  0
 20 35  1  0
 21 36  1  0
 21 37  1  0
 22 38  1  0
M  END
$$$$
LIG
     RDKit          3D

 38 39  0  0  0  0  0  0  0  0999 V2000
   28.5580   15.7160    7.2730 N   0  0  0  0  0  0  0  0  0  0  0  0
   28.5830   14.6820    7.7450 C   0  0  0  0  0  0  0  0  0  0  0  0
   28.7130   13.3600    8.3510 C   0  0  0  0  0  0  0  0  0  0  0  0
   29.7090   12.5130    7.5840 C   0  0  0  0  0  0  0  0  0  0  0  0
   29.9180   12.6920    6.3980 O   0  0  0  0  0  0  0  0  0  0  0  0
   30.3770   11.5810    8.3040 N   0  0  0  0  0  0  0  0  0  0  0  0
   31.3071   11.3371    8.1694 C   0  0  0  0  0  0  0  0  0  0  0  0
   31.5630    9.4800    8.9430 C   0  0  0  0  0  0  0  0  0  0  0  0
   32.6580    9.2460    8.1260 N   0  0  0  0  0  0  0  0  0  0  0  0
   33.3470   10.2740    7.4930 C   0  0  0  0  0  0  0  0  0  0  0  0
   32.8900   11.5720    7.6690 C   0  0  0  0  0  0  0  0  0  0  0  0
   33.3940   12.4720    6.7660 O   0  0  0  0  0  0  0  0  0  0  0  0
   32.5070   13.2300    6.0470 C   0  0  0  0  0  0  0  0  0  0  0  0
   32.8430   14.5690    6.5820 C   0  0  0  0  0  0  0  0  0  0  0  0
   32.2450   15.0040    7.5510 O   0  0  0  0  0  0  0  0  0  0  0  0
   33.9260   15.1770    6.0590 N   0  0  0  0  0  0  0  0  0  0  0  0
   34.7260   15.9040    7.0650 C   0  0  0  0  0  0  0  0  0  0  0  0
   36.2000   15.5640    6.9400 C   0  0  0  0  0  0  0  0  0  0  0  0
   36.6530   15.7410    5.6230 O   0  0  0  0  0  0  0  0  0  0  0  0
   35.9790   14.7950    4.8070 C   0  0  0  0  0  0  0  0  0  0  0  0
   34.5050   15.1130    4.7140 C   0  0  0  0  0  0  0  0  0  0  0  0
   31.8380   11.8440    8.5230 C   0  0  0  0  0  0  0  0  0  0  0  0
   29.0485   13.4340    9.3898 H   0  0  0  0  0  0  0  0  0  0  0  0
   27.7468   12.8464    8.3530 H   0  0  0  0  0  0  0  0  0  0  0  0
   31.2986   11.8161    8.6783 H   0  0  0  0  0  0  0  0  0  0  0  0
   31.7280   10.2920    9.6340 H   0  0  0  0  0  0  0  0  0  0  0  0
   34.1665    9.9704    6.9269 H   0  0  0  0  0  0  0  0  0  0  0  0
   32.7751   13.1996    5.0331 H   0  0  0  0  0  0  0  0  0  0  0  0
   31.5087   12.9844    6.2063 H   0  0  0  0  0  0  0  0  0  0  0  0
   34.5674   16.9838    6.9668 H   0  0  0  0  0  0  0  0  0  0  0  0
   34.3375   15.5934    8.0436 H   0  0  0  0  0  0  0  0  0  0  0  0
   36.7885   16.2101    7.5895 H   0  0  0  0  0  0  0  0  0  0  0  0
   36.3767   14.5313    7.2299 H   0  0  0  0  0  0  0  0  0  0  0  0
   36.4403   14.8168    3.8206 H   0  0  0  0  0  0  0  0  0  0  0  0
   36.1383   13.8042    5.2347 H   0  0  0  0  0  0  0  0  0  0  0  0
   34.3499   16.0971    4.2660 H   0  0  0  0  0  0  0  0  0  0  0  0
   33.9905   14.3657    4.1154 H   0  0  0  0  0  0  0  0  0  0  0  0
   31.2174   12.7195    8.3298 H   0  0  0  0  0  0  0  0  0  0  0  0
  1  2  3  0
  2  3  1  0
  3  4  1  0
  4  5  2  0
  4  6  1  0
  6  7  1  0
  7  8  4  0
  8  9  4  0
  9 10  4  0
 10 11  4  0
 11 12  1  0
 12 13  1  0
 13 14  1  0
 14 15  2  0
 14 16  1  0
 16 17  1  0
 17 18  1  0
 18 19  1  0
 19 20  1  0
 20 21  1  0
 11 22  4  0
 22  7  4  0
 21 16  1  0
  3 23  1  0
  3 24  1  0
  6 25  1  0
  8 26  1  0
 10 27  1  0
 13 28  1  0
 13 29  1  0
 17 30  1  0
 17 31  1  0
 18 32  1  0
 18 33  1  0
 20 34  1  0
 20 35  1  0
 21 36  1  0
 21 37  1  0
 22 38  1  0
M  END
$$$$
LIG
     RDKit          3D

 38 39  0  0  0  0  0  0  0  0999 V2000
   28.5580   15.7160    7.2730 N   0  0  0  0  0  0  0  0  0  0  0  0
   28.5830   14.6820    7.7450 C   0  0  0  0  0  0  0  0  0  0  0  0
   28.7130   13.3600    8.3510 C   0  0  0  0  0  0  0  0  0  0  0  0
   29.7090   12.5130    7.5840 C   0  0  0  0  0  0  0  0  0  0  0  0
   29.9180   12.6920    6.3980 O   0  0  0  0  0  0  0  0  0  0  0  0
   30.3770   11.5810    8.3040 N   0  0  0  0  0  0  0  0  0  0  0  0
   31.3080   11.3369    8.1595 C   0  0  0  0  0  0  0  0  0  0  0  0
   31.5630    9.4800    8.9430 C   0  0  0  0  0  0  0  0  0  0  0  0
   32.6580    9.2460    8.1260 N   0  0  0  0  0  0  0  0  0  0  0  0
   33.3470   10.2740    7.4930 C   0  0  0  0  0  0  0  0  0  0  0  0
   32.8900   11.5720    7.6690 C   0  0  0  0  0  0  0  0  0  0  0  0
   33.3940   12.4720    6.7660 O   0  0  0  0  0  0  0  0  0  0  0  0
   32.5070   13.2300    6.0470 C   0  0  0  0  0  0  0  0  0  0  0  0
   32.8430   14.5690    6.5820 C   0  0  0  0  0  0  0  0  0  0  0  0
   32.2450   15.0040    7.5510 O   0  0  0  0  0  0  0  0  0  0  0  0
   33.9260   15.1770    6.0590 N   0  0  0  0  0  0  0  0  0  0  0  0
   34.5050   15.1130    4.7140 C   0  0  0  0  0  0  0  0  0  0  0  0
   35.9790   14.7950    4.8070 C   0  0  0  0  0  0  0  0  0  0  0  0
   36.6530   15.7410    5.6230 O   0  0  0  0  0  0  0  0  0  0  0  0
   36.2000   15.5640    6.9400 C   0  0  0  0  0  0  0  0  0  0  0  0
   34.7260   15.9040    7.0650 C   0  0  0  0  0  0  0  0  0  0  0  0
   31.8380   11.8440    8.5230 C   0  0  0  0  0  0  0  0  0  0  0  0
   27.7441   12.8440    8.3772 H   0  0  0  0  0  0  0  0  0  0  0  0
   29.0540   13.4359    9.3926 H   0  0  0  0  0  0  0  0  0  0  0  0
   31.3678   11.4272    8.1098 H   0  0  0  0  0  0  0  0  0  0  0  0
   30.6345    9.5070    8.3940 H   0  0  0  0  0  0  0  0  0  0  0  0
   34.1640    9.9715    6.9286 H   0  0  0  0  0  0  0  0  0  0  0  0
   31.5142   12.9593    6.1939 H   0  0  0  0  0  0  0  0  0  0  0  0
   32.8225   13.2093    5.0420 H   0  0  0  0  0  0  0  0  0  0  0  0
   34.3471   16.0975    4.2632 H   0  0  0  0  0  0  0  0  0  0  0  0
   33.9829   14.3677    4.1103 H   0  0  0  0  0  0  0  0  0  0  0  0
   36.1284   13.8146    5.2472 H   0  0  0  0  0  0  0  0  0  0  0  0
   36.4385   14.8117    3.8262 H   0  0  0  0  0  0  0  0  0  0  0  0
   36.3725   14.5257    7.2247 H   0  0  0  0  0  0  0  0  0  0  0  0
   36.7963   16.1970    7.6006 H   0  0  0  0  0  0  0  0  0  0  0  0
   34.3406   15.5939    8.0420 H   0  0  0  0  0  0  0  0  0  0  0  0
   34.5658   16.9785    6.9508 H   0  0  0  0  0  0  0  0  0  0  0  0
   32.0515   12.0161    9.5780 H   0  0  0  0  0  0  0  0  0  0  0  0
  1  2  3  0
  2  3  1  0
  3  4  1  0
  4  5  2  0
  4  6  1  0
  6  7  1  0
  7  8  4  0
  8  9  4  0
  9 10  4  0
 10 11  4  0
 11 12  1  0
 12 13  1  0
 13 14  1  0
 14 15  2  0
 14 16  1  0
 16 17  1  0
 17 18  1  0
 18 19  1  0
 19 20  1  0
 20 21  1  0
 11 22  4  0
 22  7  4  0
 21 16  1  0
  3 23  1  0
  3 24  1  0
  6 25  1  0
  8 26  1  0
 10 27  1  0
 13 28  1  0
 13 29  1  0
 17 30  1  0
 17 31  1  0
 18 32  1  0
 18 33  1  0
 20 34  1  0
 20 35  1  0
 21 36  1  0
 21 37  1  0
 22 38  1  0
M  END
$$$$
