LIG
     RDKit          3D

 31 31  0  0  0  0  0  0  0  0999 V2000
   32.5664    9.4020    6.5105 C   0  0  0  0  0  0  0  0  0  0  0  0
   33.0353   10.6466    6.1228 C   0  0  0  0  0  0  0  0  0  0  0  0
   32.5239   11.7779    6.7505 C   0  0  0  0  0  0  0  0  0  0  0  0
   33.2268   12.9846    6.5882 N   0  0  0  0  0  0  0  0  0  0  0  0
   33.9378   13.4690    7.6902 C   0  0  0  0  0  0  0  0  0  0  0  0
   33.7993   13.0901    8.8547 O   0  0  0  0  0  0  0  0  0  0  0  0
   34.9794   14.5206    7.3020 C   0  0  0  0  0  0  0  0  0  0  0  0
   34.9428   14.8800    5.9262 O   0  0  0  0  0  0  0  0  0  0  0  0
   31.4613   11.6566    7.6585 C   0  0  0  0  0  0  0  0  0  0  0  0
   30.6773   12.7267    8.1199 N   0  0  0  0  0  0  0  0  0  0  0  0
   29.7065   13.1285    7.2083 C   0  0  0  0  0  0  0  0  0  0  0  0
   29.8307   13.1234    5.9851 O   0  0  0  0  0  0  0  0  0  0  0  0
   28.4167   13.5377    7.8483 C   0  0  0  0  0  0  0  0  0  0  0  0
   28.4566   14.9609    8.0894 C   0  0  0  0  0  0  0  0  0  0  0  0
   28.4859   16.0890    8.3396 N   0  0  0  0  0  0  0  0  0  0  0  0
   31.0122   10.4213    8.0578 C   0  0  0  0  0  0  0  0  0  0  0  0
   31.5779    9.3013    7.5022 C   0  0  0  0  0  0  0  0  0  0  0  0
   31.1454    8.0221    8.0840 C   0  0  0  0  0  0  0  0  0  0  0  0
   33.0242    8.5099    6.0958 H   0  0  0  0  0  0  0  0  0  0  0  0
   33.8648   10.7146    5.4258 H   0  0  0  0  0  0  0  0  0  0  0  0
   33.7815   13.0985    5.7422 H   0  0  0  0  0  0  0  0  0  0  0  0
   35.9735   14.1287    7.5318 H   0  0  0  0  0  0  0  0  0  0  0  0
   34.7785   15.4007    7.9096 H   0  0  0  0  0  0  0  0  0  0  0  0
   35.0819   15.8535    5.8732 H   0  0  0  0  0  0  0  0  0  0  0  0
   30.3039   12.5596    9.0545 H   0  0  0  0  0  0  0  0  0  0  0  0
   27.5966   13.2693    7.1740 H   0  0  0  0  0  0  0  0  0  0  0  0
   28.2537   12.9873    8.7788 H   0  0  0  0  0  0  0  0  0  0  0  0
   30.2155   10.3136    8.7873 H   0  0  0  0  0  0  0  0  0  0  0  0
   31.4362    7.2545    7.3888 H   0  0  0  0  0  0  0  0  0  0  0  0
   31.6366    7.8849    9.0492 H   0  0  0  0  0  0  0  0  0  0  0  0
   30.0613    7.9796    8.2311 H   0  0  0  0  0  0  0  0  0  0  0  0
  1  2  2  0
  2  3  1  0
  3  4  1  0
  4  5  1  0
  5  6  2  0
  5  7  1  0
  7  8  1  0
  3  9  2  0
  9 10  1  0
 10 11  1  0
 11 12  2  0
 11 13  1  0
 13 14  1  0
 14 15  3  0
  9 16  1  0
 16 17  2  0
 17 18  1  0
 17  1  1  0
  1 19  1  0
  2 20  1  0
  4 21  1  0
  7 22  1  0
  7 23  1  0
  8 24  1  0
 10 25  1  0
 13 26  1  0
 13 27  1  0
 16 28  1  0
 18 29  1  0
 18 30  1  0
 18 31  1  0
M  END
