LIG
     RDKit          3D

 34 35  0  0  0  0  0  0  0  0999 V2000
   28.4120   15.9040    8.0281 N   0  0  0  0  0  0  0  0  0  0  0  0
   28.6358   14.8054    8.3112 C   0  0  0  0  0  0  0  0  0  0  0  0
   28.9248   13.4637    8.7829 C   0  0  0  0  0  0  0  0  0  0  0  0
   29.5652   12.6450    7.7067 C   0  0  0  0  0  0  0  0  0  0  0  0
   29.4632   12.9131    6.5117 O   0  0  0  0  0  0  0  0  0  0  0  0
   30.2725   11.5617    8.2041 N   0  0  0  0  0  0  0  0  0  0  0  0
   31.2669   10.9323    7.4440 C   0  0  0  0  0  0  0  0  0  0  0  0
   31.4962    9.5807    7.5702 C   0  0  0  0  0  0  0  0  0  0  0  0
   32.4443    9.0422    6.7251 C   0  0  0  0  0  0  0  0  0  0  0  0
   33.1616    9.7342    5.8088 N   0  0  0  0  0  0  0  0  0  0  0  0
   32.9529   11.0574    5.7453 C   0  0  0  0  0  0  0  0  0  0  0  0
   33.6011   11.7245    4.7115 N   0  0  0  0  0  0  0  0  0  0  0  0
   33.4853   13.0631    4.3939 C   0  0  0  0  0  0  0  0  0  0  0  0
   33.1280   13.9640    5.1488 O   0  0  0  0  0  0  0  0  0  0  0  0
   33.6898   13.2835    2.8945 C   0  0  0  0  0  0  0  0  0  0  0  0
   33.8690   14.7355    2.5039 C   0  0  0  0  0  0  0  0  0  0  0  0
   34.5636   14.5973    1.1742 C   0  0  0  0  0  0  0  0  0  0  0  0
   35.4748   13.4131    1.4210 C   0  0  0  0  0  0  0  0  0  0  0  0
   34.8010   12.5569    2.3562 O   0  0  0  0  0  0  0  0  0  0  0  0
   32.0350   11.6852    6.5599 C   0  0  0  0  0  0  0  0  0  0  0  0
   29.6175   13.5526    9.6245 H   0  0  0  0  0  0  0  0  0  0  0  0
   28.0161   12.9651    9.1182 H   0  0  0  0  0  0  0  0  0  0  0  0
   29.8916   11.0814    9.0179 H   0  0  0  0  0  0  0  0  0  0  0  0
   30.9456    8.9440    8.2531 H   0  0  0  0  0  0  0  0  0  0  0  0
   32.6650    7.9876    6.7794 H   0  0  0  0  0  0  0  0  0  0  0  0
   34.1374   11.1321    4.0873 H   0  0  0  0  0  0  0  0  0  0  0  0
   32.7914   12.8891    2.3999 H   0  0  0  0  0  0  0  0  0  0  0  0
   32.9233   15.2823    2.4455 H   0  0  0  0  0  0  0  0  0  0  0  0
   34.5196   15.2591    3.2151 H   0  0  0  0  0  0  0  0  0  0  0  0
   33.8318   14.3514    0.3955 H   0  0  0  0  0  0  0  0  0  0  0  0
   35.1051   15.4950    0.8650 H   0  0  0  0  0  0  0  0  0  0  0  0
   35.6977   12.8564    0.5065 H   0  0  0  0  0  0  0  0  0  0  0  0
   36.4190   13.7280    1.8781 H   0  0  0  0  0  0  0  0  0  0  0  0
   31.8750   12.7517    6.4910 H   0  0  0  0  0  0  0  0  0  0  0  0
  1  2  3  0
  2  3  1  0
  3  4  1  0
  4  5  2  0
  4  6  1  0
  6  7  1  0
  7  8  2  0
  8  9  1  0
  9 10  2  0
 10 11  1  0
 11 12  1  0
 12 13  1  0
 13 14  2  0
 13 15  1  0
 15 16  1  0
 16 17  1  0
 17 18  1  0
 18 19  1  0
 11 20  2  0
 20  7  1  0
 19 15  1  0
  3 21  1  0
  3 22  1  0
  6 23  1  0
  8 24  1  0
  9 25  1  0
 12 26  1  0
 15 27  1  0
 16 28  1  0
 16 29  1  0
 17 30  1  0
 17 31  1  0
 18 32  1  0
 18 33  1  0
 20 34  1  0
M  END
