LIG
     RDKit          3D

 34 34  0  0  0  0  0  0  0  0999 V2000
   29.7524   15.1905   11.3066 C   0  0  0  0  0  0  0  0  0  0  0  0
   29.1499   14.5838   10.1308 N   0  0  0  0  0  0  0  0  0  0  0  0
   28.1442   15.2821    9.3559 C   0  0  0  0  0  0  0  0  0  0  0  0
   29.9985   13.7202    9.4491 C   0  0  0  0  0  0  0  0  0  0  0  0
   31.2076   13.7328    9.6662 O   0  0  0  0  0  0  0  0  0  0  0  0
   29.2937   12.7833    8.4540 C   0  0  0  0  0  0  0  0  0  0  0  0
   29.7368   11.4446    8.4080 O   0  0  0  0  0  0  0  0  0  0  0  0
   30.8380   11.1815    7.6698 C   0  0  0  0  0  0  0  0  0  0  0  0
   31.1048    9.8365    7.4312 C   0  0  0  0  0  0  0  0  0  0  0  0
   32.1403    9.4833    6.5710 C   0  0  0  0  0  0  0  0  0  0  0  0
   32.9409   10.4692    6.0194 C   0  0  0  0  0  0  0  0  0  0  0  0
   33.8837   10.1380    5.1325 F   0  0  0  0  0  0  0  0  0  0  0  0
   32.8099   11.7783    6.4476 C   0  0  0  0  0  0  0  0  0  0  0  0
   33.8449   12.7065    6.2616 N   0  0  0  0  0  0  0  0  0  0  0  0
   34.3515   13.3934    7.3658 C   0  0  0  0  0  0  0  0  0  0  0  0
   33.9763   13.2145    8.5280 O   0  0  0  0  0  0  0  0  0  0  0  0
   35.4645   14.3713    7.0815 C   0  0  0  0  0  0  0  0  0  0  0  0
   35.7461   14.6726    5.3193 S   0  0  0  0  0  0  0  0  0  0  0  0
   31.7019   12.1477    7.1873 C   0  0  0  0  0  0  0  0  0  0  0  0
   30.3487   14.4490   11.8381 H   0  0  0  0  0  0  0  0  0  0  0  0
   28.9709   15.5098   11.9954 H   0  0  0  0  0  0  0  0  0  0  0  0
   30.4205   16.0050   11.0145 H   0  0  0  0  0  0  0  0  0  0  0  0
   28.5969   16.1528    8.8745 H   0  0  0  0  0  0  0  0  0  0  0  0
   27.7376   14.6795    8.5420 H   0  0  0  0  0  0  0  0  0  0  0  0
   27.3076   15.5459    9.9902 H   0  0  0  0  0  0  0  0  0  0  0  0
   28.2435   12.7081    8.7481 H   0  0  0  0  0  0  0  0  0  0  0  0
   29.2903   13.2461    7.4582 H   0  0  0  0  0  0  0  0  0  0  0  0
   30.4747    9.0638    7.8684 H   0  0  0  0  0  0  0  0  0  0  0  0
   32.3459    8.4439    6.3499 H   0  0  0  0  0  0  0  0  0  0  0  0
   34.5665   12.4665    5.5848 H   0  0  0  0  0  0  0  0  0  0  0  0
   36.3815   13.9728    7.5236 H   0  0  0  0  0  0  0  0  0  0  0  0
   35.2086   15.3151    7.5616 H   0  0  0  0  0  0  0  0  0  0  0  0
   35.5691   16.0095    5.3611 H   0  0  0  0  0  0  0  0  0  0  0  0
   31.5932   13.1961    7.4278 H   0  0  0  0  0  0  0  0  0  0  0  0
  1  2  1  0
  2  3  1  0
  2  4  1  0
  4  5  2  0
  4  6  1  0
  6  7  1  0
  7  8  1  0
  8  9  2  0
  9 10  1  0
 10 11  2  0
 11 12  1  0
 11 13  1  0
 13 14  1  0
 14 15  1  0
 15 16  2  0
 15 17  1  0
 17 18  1  0
 13 19  2  0
 19  8  1  0
  1 20  1  0
  1 21  1  0
  1 22  1  0
  3 23  1  0
  3 24  1  0
  3 25  1  0
  6 26  1  0
  6 27  1  0
  9 28  1  0
 10 29  1  0
 14 30  1  0
 17 31  1  0
 17 32  1  0
 18 33  1  0
 19 34  1  0
M  END
