LIG
     RDKit          3D

 37 38  0  0  0  0  0  0  0  0999 V2000
   35.1272    8.5644    3.9001 C   0  0  0  0  0  0  0  0  0  0  0  0
   35.2849   10.0288    4.1338 C   0  0  0  0  0  0  0  0  0  0  0  0
   36.2500   10.6589    3.6957 O   0  0  0  0  0  0  0  0  0  0  0  0
   34.3430   10.7181    4.8019 N   0  0  0  0  0  0  0  0  0  0  0  0
   33.3137   10.3653    5.6705 C   0  0  0  0  0  0  0  0  0  0  0  0
   33.0416    9.1466    6.2487 C   0  0  0  0  0  0  0  0  0  0  0  0
   32.0543    9.0709    7.2185 C   0  0  0  0  0  0  0  0  0  0  0  0
   31.4213   10.1533    7.6862 N   0  0  0  0  0  0  0  0  0  0  0  0
   31.7073   11.3172    7.1065 C   0  0  0  0  0  0  0  0  0  0  0  0
   31.1419   12.4008    7.6783 O   0  0  0  0  0  0  0  0  0  0  0  0
   31.7727   13.6183    7.3552 C   0  0  0  0  0  0  0  0  0  0  0  0
   33.2260   13.7738    7.8275 C   0  0  0  0  0  0  0  0  0  0  0  0
   33.4183   13.7042    9.0446 O   0  0  0  0  0  0  0  0  0  0  0  0
   34.2844   13.9273    6.9262 N   0  0  0  0  0  0  0  0  0  0  0  0
   35.6042   14.0361    7.5484 C   0  0  0  0  0  0  0  0  0  0  0  0
   36.6928   13.6361    6.5569 C   0  0  0  0  0  0  0  0  0  0  0  0
   36.6964   14.5396    5.4433 O   0  0  0  0  0  0  0  0  0  0  0  0
   35.4580   14.4327    4.7340 C   0  0  0  0  0  0  0  0  0  0  0  0
   34.2357   14.6440    5.6459 C   0  0  0  0  0  0  0  0  0  0  0  0
   32.5506   11.4328    6.0403 C   0  0  0  0  0  0  0  0  0  0  0  0
   35.4967    8.0073    4.7626 H   0  0  0  0  0  0  0  0  0  0  0  0
   34.0892    8.3113    3.6802 H   0  0  0  0  0  0  0  0  0  0  0  0
   35.7211    8.2787    3.0261 H   0  0  0  0  0  0  0  0  0  0  0  0
   34.5762   11.7010    4.7794 H   0  0  0  0  0  0  0  0  0  0  0  0
   33.6231    8.2763    6.0216 H   0  0  0  0  0  0  0  0  0  0  0  0
   31.7858    8.1351    7.7013 H   0  0  0  0  0  0  0  0  0  0  0  0
   31.2054   14.3489    7.9401 H   0  0  0  0  0  0  0  0  0  0  0  0
   31.6186   13.8641    6.3036 H   0  0  0  0  0  0  0  0  0  0  0  0
   35.7227   15.0783    7.8576 H   0  0  0  0  0  0  0  0  0  0  0  0
   35.6680   13.4221    8.4497 H   0  0  0  0  0  0  0  0  0  0  0  0
   36.5443   12.6185    6.1791 H   0  0  0  0  0  0  0  0  0  0  0  0
   37.6793   13.6601    7.0275 H   0  0  0  0  0  0  0  0  0  0  0  0
   35.4221   13.4566    4.2446 H   0  0  0  0  0  0  0  0  0  0  0  0
   35.4601   15.1863    3.9398 H   0  0  0  0  0  0  0  0  0  0  0  0
   34.2488   15.6853    5.9406 H   0  0  0  0  0  0  0  0  0  0  0  0
   33.3066   14.4461    5.1100 H   0  0  0  0  0  0  0  0  0  0  0  0
   32.6759   12.3542    5.5004 H   0  0  0  0  0  0  0  0  0  0  0  0
  1  2  1  0
  2  3  2  0
  2  4  1  0
  4  5  1  0
  5  6  2  0
  6  7  1  0
  7  8  2  0
  8  9  1  0
  9 10  1  0
 10 11  1  0
 11 12  1  0
 12 13  2  0
 12 14  1  0
 14 15  1  0
 15 16  1  0
 16 17  1  0
 17 18  1  0
 18 19  1  0
  9 20  2  0
 20  5  1  0
 19 14  1  0
  1 21  1  0
  1 22  1  0
  1 23  1  0
  4 24  1  0
  6 25  1  0
  7 26  1  0
 11 27  1  0
 11 28  1  0
 15 29  1  0
 15 30  1  0
 16 31  1  0
 16 32  1  0
 18 33  1  0
 18 34  1  0
 19 35  1  0
 19 36  1  0
 20 37  1  0
M  END
