LIG
     RDKit          3D

 30 30  0  0  0  0  0  0  0  0999 V2000
   29.1953   14.5475    8.7532 C   0  0  0  0  0  0  0  0  0  0  0  0
   29.5924   13.3635    7.9175 C   0  0  0  0  0  0  0  0  0  0  0  0
   28.7624   12.7913    7.2147 O   0  0  0  0  0  0  0  0  0  0  0  0
   30.9383   13.0524    7.9838 N   0  0  0  0  0  0  0  0  0  0  0  0
   31.4587   11.8250    7.5185 C   0  0  0  0  0  0  0  0  0  0  0  0
   30.7917   10.6441    7.8391 C   0  0  0  0  0  0  0  0  0  0  0  0
   31.2882    9.4221    7.4101 C   0  0  0  0  0  0  0  0  0  0  0  0
   32.3907    9.3863    6.5621 C   0  0  0  0  0  0  0  0  0  0  0  0
   33.0697   10.5558    6.2002 C   0  0  0  0  0  0  0  0  0  0  0  0
   34.2186   10.4446    5.2386 C   0  0  0  0  0  0  0  0  0  0  0  0
   32.6512   11.7723    6.7670 C   0  0  0  0  0  0  0  0  0  0  0  0
   33.4433   12.9285    6.5838 N   0  0  0  0  0  0  0  0  0  0  0  0
   34.0929   13.4776    7.6858 C   0  0  0  0  0  0  0  0  0  0  0  0
   33.8446   13.2042    8.8592 O   0  0  0  0  0  0  0  0  0  0  0  0
   35.1827   14.4694    7.2887 C   0  0  0  0  0  0  0  0  0  0  0  0
   35.0790   14.8935    5.9351 O   0  0  0  0  0  0  0  0  0  0  0  0
   28.3540   14.2675    9.3931 H   0  0  0  0  0  0  0  0  0  0  0  0
   28.9006   15.3704    8.0967 H   0  0  0  0  0  0  0  0  0  0  0  0
   30.0171   14.8793    9.3940 H   0  0  0  0  0  0  0  0  0  0  0  0
   31.6002   13.8100    8.0692 H   0  0  0  0  0  0  0  0  0  0  0  0
   29.9012   10.6601    8.4591 H   0  0  0  0  0  0  0  0  0  0  0  0
   30.7876    8.5002    7.7023 H   0  0  0  0  0  0  0  0  0  0  0  0
   32.7406    8.4228    6.2044 H   0  0  0  0  0  0  0  0  0  0  0  0
   35.0892   11.0118    5.5771 H   0  0  0  0  0  0  0  0  0  0  0  0
   34.5414    9.4053    5.1145 H   0  0  0  0  0  0  0  0  0  0  0  0
   33.9117   10.8214    4.2575 H   0  0  0  0  0  0  0  0  0  0  0  0
   34.0549   12.9552    5.7711 H   0  0  0  0  0  0  0  0  0  0  0  0
   36.1569   13.9966    7.4354 H   0  0  0  0  0  0  0  0  0  0  0  0
   35.0856   15.3307    7.9452 H   0  0  0  0  0  0  0  0  0  0  0  0
   35.1726   15.8732    5.9183 H   0  0  0  0  0  0  0  0  0  0  0  0
  1  2  1  0
  2  3  2  0
  2  4  1  0
  4  5  1  0
  5  6  2  0
  6  7  1  0
  7  8  2  0
  8  9  1  0
  9 10  1  0
  9 11  2  0
 11 12  1  0
 12 13  1  0
 13 14  2  0
 13 15  1  0
 15 16  1  0
 11  5  1  0
  1 17  1  0
  1 18  1  0
  1 19  1  0
  4 20  1  0
  6 21  1  0
  7 22  1  0
  8 23  1  0
 10 24  1  0
 10 25  1  0
 10 26  1  0
 12 27  1  0
 15 28  1  0
 15 29  1  0
 16 30  1  0
M  END
