LIG
     RDKit          3D

 44 45  0  0  0  0  0  0  0  0999 V2000
   31.0575    8.8044    8.0434 C   0  0  0  0  0  0  0  0  0  0  0  0
   31.7514    9.8329    7.1946 C   0  0  0  0  0  0  0  0  0  0  0  0
   32.7555    9.4490    6.3051 C   0  0  0  0  0  0  0  0  0  0  0  0
   33.3697   10.3774    5.4683 C   0  0  0  0  0  0  0  0  0  0  0  0
   32.9905   11.7123    5.5153 C   0  0  0  0  0  0  0  0  0  0  0  0
   33.4265   12.6782    4.5967 N   0  0  0  0  0  0  0  0  0  0  0  0
   34.2106   12.4798    3.4775 C   0  0  0  0  0  0  0  0  0  0  0  0
   34.8618   11.4786    3.2077 O   0  0  0  0  0  0  0  0  0  0  0  0
   34.0697   13.6453    2.4905 C   0  0  0  0  0  0  0  0  0  0  0  0
   35.3477   13.9228    1.7192 C   0  0  0  0  0  0  0  0  0  0  0  0
   35.2847   15.4142    1.5187 C   0  0  0  0  0  0  0  0  0  0  0  0
   34.6620   15.8619    2.8190 C   0  0  0  0  0  0  0  0  0  0  0  0
   33.6754   14.8682    3.1461 O   0  0  0  0  0  0  0  0  0  0  0  0
   32.0368   12.1166    6.4538 C   0  0  0  0  0  0  0  0  0  0  0  0
   31.3934   11.1806    7.2656 C   0  0  0  0  0  0  0  0  0  0  0  0
   30.3966   11.4536    8.1498 O   0  0  0  0  0  0  0  0  0  0  0  0
   29.7976   12.7293    8.1462 C   0  0  0  0  0  0  0  0  0  0  0  0
   30.5021   13.7145    9.0803 C   0  0  0  0  0  0  0  0  0  0  0  0
   31.7246   13.7331    9.2381 O   0  0  0  0  0  0  0  0  0  0  0  0
   29.6770   14.5890    9.7769 N   0  0  0  0  0  0  0  0  0  0  0  0
   28.4468   15.1068    9.2073 C   0  0  0  0  0  0  0  0  0  0  0  0
   30.2483   15.2352   10.9427 C   0  0  0  0  0  0  0  0  0  0  0  0
   31.5047    7.8242    7.8896 H   0  0  0  0  0  0  0  0  0  0  0  0
   31.1338    9.0469    9.1042 H   0  0  0  0  0  0  0  0  0  0  0  0
   29.9971    8.7430    7.7882 H   0  0  0  0  0  0  0  0  0  0  0  0
   33.0683    8.4115    6.2458 H   0  0  0  0  0  0  0  0  0  0  0  0
   34.1303   10.0142    4.7840 H   0  0  0  0  0  0  0  0  0  0  0  0
   33.0814   13.6280    4.6905 H   0  0  0  0  0  0  0  0  0  0  0  0
   33.2574   13.3855    1.8008 H   0  0  0  0  0  0  0  0  0  0  0  0
   35.4017   13.3650    0.7796 H   0  0  0  0  0  0  0  0  0  0  0  0
   36.2337   13.6611    2.3107 H   0  0  0  0  0  0  0  0  0  0  0  0
   36.2585   15.8725    1.3289 H   0  0  0  0  0  0  0  0  0  0  0  0
   34.6183   15.6482    0.6803 H   0  0  0  0  0  0  0  0  0  0  0  0
   34.1869   16.8437    2.7473 H   0  0  0  0  0  0  0  0  0  0  0  0
   35.4037   15.8764    3.6239 H   0  0  0  0  0  0  0  0  0  0  0  0
   31.7857   13.1676    6.5140 H   0  0  0  0  0  0  0  0  0  0  0  0
   29.6943   13.1581    7.1432 H   0  0  0  0  0  0  0  0  0  0  0  0
   28.7833   12.5585    8.5166 H   0  0  0  0  0  0  0  0  0  0  0  0
   28.0631   14.4996    8.3867 H   0  0  0  0  0  0  0  0  0  0  0  0
   27.6872   15.1545    9.9882 H   0  0  0  0  0  0  0  0  0  0  0  0
   28.6441   16.0985    8.7928 H   0  0  0  0  0  0  0  0  0  0  0  0
   29.4766   15.3428   11.7089 H   0  0  0  0  0  0  0  0  0  0  0  0
   30.6638   16.2041   10.6606 H   0  0  0  0  0  0  0  0  0  0  0  0
   31.0587   14.6380   11.3603 H   0  0  0  0  0  0  0  0  0  0  0  0
  1  2  1  0
  2  3  2  0
  3  4  1  0
  4  5  2  0
  5  6  1  0
  6  7  1  0
  7  8  2  0
  7  9  1  0
  9 10  1  0
 10 11  1  0
 11 12  1  0
 12 13  1  0
  5 14  1  0
 14 15  2  0
 15 16  1  0
 16 17  1  0
 17 18  1  0
 18 19  2  0
 18 20  1  0
 20 21  1  0
 20 22  1  0
 15  2  1  0
 13  9  1  0
  1 23  1  0
  1 24  1  0
  1 25  1  0
  3 26  1  0
  4 27  1  0
  6 28  1  0
  9 29  1  0
 10 30  1  0
 10 31  1  0
 11 32  1  0
 11 33  1  0
 12 34  1  0
 12 35  1  0
 14 36  1  0
 17 37  1  0
 17 38  1  0
 21 39  1  0
 21 40  1  0
 21 41  1  0
 22 42  1  0
 22 43  1  0
 22 44  1  0
M  END
