LIG
     RDKit          3D

 41 41  0  0  0  0  0  0  0  0999 V2000
   29.1462   14.5579    8.7615 C   0  0  0  0  0  0  0  0  0  0  0  0
   29.5338   13.3408    7.9695 C   0  0  0  0  0  0  0  0  0  0  0  0
   28.6924   12.7387    7.3077 O   0  0  0  0  0  0  0  0  0  0  0  0
   30.8836   13.0468    8.0256 N   0  0  0  0  0  0  0  0  0  0  0  0
   31.4241   11.8292    7.5482 C   0  0  0  0  0  0  0  0  0  0  0  0
   30.7858   10.6324    7.8617 C   0  0  0  0  0  0  0  0  0  0  0  0
   31.3009    9.4339    7.3987 C   0  0  0  0  0  0  0  0  0  0  0  0
   32.3842    9.4499    6.5249 C   0  0  0  0  0  0  0  0  0  0  0  0
   33.0392   10.6374    6.1730 C   0  0  0  0  0  0  0  0  0  0  0  0
   34.0168   10.4024    5.2527 O   0  0  0  0  0  0  0  0  0  0  0  0
   35.1443   11.2344    5.0991 C   0  0  0  0  0  0  0  0  0  0  0  0
   35.0375   12.3600    4.0735 C   0  0  0  0  0  0  0  0  0  0  0  0
   33.9596   12.6103    3.5307 O   0  0  0  0  0  0  0  0  0  0  0  0
   36.1880   13.1171    3.8513 N   0  0  0  0  0  0  0  0  0  0  0  0
   36.0775   14.3120    3.0308 C   0  0  0  0  0  0  0  0  0  0  0  0
   37.4125   13.0002    4.6300 C   0  0  0  0  0  0  0  0  0  0  0  0
   32.6143   11.8271    6.7801 C   0  0  0  0  0  0  0  0  0  0  0  0
   33.3154   13.0454    6.6654 N   0  0  0  0  0  0  0  0  0  0  0  0
   34.0489   13.4795    7.7654 C   0  0  0  0  0  0  0  0  0  0  0  0
   33.9170   13.0508    8.9113 O   0  0  0  0  0  0  0  0  0  0  0  0
   35.0352   14.5876    7.4302 C   0  0  0  0  0  0  0  0  0  0  0  0
   34.9526   14.9997    6.0770 O   0  0  0  0  0  0  0  0  0  0  0  0
   28.2971   14.3111    9.4049 H   0  0  0  0  0  0  0  0  0  0  0  0
   28.8670   15.3616    8.0751 H   0  0  0  0  0  0  0  0  0  0  0  0
   29.9675   14.9007    9.3971 H   0  0  0  0  0  0  0  0  0  0  0  0
   31.5220   13.8282    8.0418 H   0  0  0  0  0  0  0  0  0  0  0  0
   29.9044   10.6197    8.4938 H   0  0  0  0  0  0  0  0  0  0  0  0
   30.8280    8.4930    7.6743 H   0  0  0  0  0  0  0  0  0  0  0  0
   32.7491    8.5079    6.1242 H   0  0  0  0  0  0  0  0  0  0  0  0
   35.4562   11.6796    6.0365 H   0  0  0  0  0  0  0  0  0  0  0  0
   35.9433   10.5720    4.7528 H   0  0  0  0  0  0  0  0  0  0  0  0
   35.1554   14.3262    2.4442 H   0  0  0  0  0  0  0  0  0  0  0  0
   36.9273   14.3472    2.3425 H   0  0  0  0  0  0  0  0  0  0  0  0
   36.1003   15.1938    3.6769 H   0  0  0  0  0  0  0  0  0  0  0  0
   37.5822   11.9767    4.9605 H   0  0  0  0  0  0  0  0  0  0  0  0
   38.2646   13.3030    4.0139 H   0  0  0  0  0  0  0  0  0  0  0  0
   37.3421   13.6549    5.5021 H   0  0  0  0  0  0  0  0  0  0  0  0
   33.7643   13.2625    5.7808 H   0  0  0  0  0  0  0  0  0  0  0  0
   34.7839   15.4223    8.0793 H   0  0  0  0  0  0  0  0  0  0  0  0
   36.0475   14.2343    7.6371 H   0  0  0  0  0  0  0  0  0  0  0  0
   35.1058   15.9713    6.0408 H   0  0  0  0  0  0  0  0  0  0  0  0
  1  2  1  0
  2  3  2  0
  2  4  1  0
  4  5  1  0
  5  6  2  0
  6  7  1  0
  7  8  2  0
  8  9  1  0
  9 10  1  0
 10 11  1  0
 11 12  1  0
 12 13  2  0
 12 14  1  0
 14 15  1  0
 14 16  1  0
  9 17  2  0
 17 18  1  0
 18 19  1  0
 19 20  2  0
 19 21  1  0
 21 22  1  0
 17  5  1  0
  1 23  1  0
  1 24  1  0
  1 25  1  0
  4 26  1  0
  6 27  1  0
  7 28  1  0
  8 29  1  0
 11 30  1  0
 11 31  1  0
 15 32  1  0
 15 33  1  0
 15 34  1  0
 16 35  1  0
 16 36  1  0
 16 37  1  0
 18 38  1  0
 21 39  1  0
 21 40  1  0
 22 41  1  0
M  END
