LIG
     RDKit          3D

 38 39  0  0  0  0  0  0  0  0999 V2000
   34.1980   10.0910    5.5530 C   0  0  0  0  0  0  0  0  0  0  0  0
   32.8360   10.5190    6.2010 C   0  0  0  0  0  0  0  0  0  0  0  0
   32.2980    9.4490    6.8970 C   0  0  0  0  0  0  0  0  0  0  0  0
   31.3020    9.7050    7.8000 C   0  0  0  0  0  0  0  0  0  0  0  0
   30.8090   10.9600    8.0540 C   0  0  0  0  0  0  0  0  0  0  0  0
   31.3600   12.0190    7.3410 C   0  0  0  0  0  0  0  0  0  0  0  0
   30.9510   13.3300    7.5050 O   0  0  0  0  0  0  0  0  0  0  0  0
   30.0580   13.6540    8.5870 C   0  0  0  0  0  0  0  0  0  0  0  0
   28.5940   13.4330    8.1660 C   0  0  0  0  0  0  0  0  0  0  0  0
   27.8900   14.7750    8.3110 C   0  0  0  0  0  0  0  0  0  0  0  0
   28.8690   15.5850    9.0100 N   0  0  0  0  0  0  0  0  0  0  0  0
   28.4820   16.7650    9.7690 C   0  0  0  0  0  0  0  0  0  0  0  0
   30.1260   15.1410    8.9140 C   0  0  0  0  0  0  0  0  0  0  0  0
   31.1310   15.8110    9.0820 O   0  0  0  0  0  0  0  0  0  0  0  0
   32.3710   11.8060    6.4170 C   0  0  0  0  0  0  0  0  0  0  0  0
   33.6520   12.7090    6.6590 N   0  0  0  0  0  0  0  0  0  0  0  0
   34.4250   13.2280    7.6390 C   0  0  0  0  0  0  0  0  0  0  0  0
   34.9120   12.5690    8.5560 O   0  0  0  0  0  0  0  0  0  0  0  0
   34.6680   14.7180    7.5670 C   0  0  0  0  0  0  0  0  0  0  0  0
   35.0470   15.1300    6.2680 O   0  0  0  0  0  0  0  0  0  0  0  0
   34.0416    9.9025    4.4952 H   0  0  0  0  0  0  0  0  0  0  0  0
   34.5424    9.1655    5.9952 H   0  0  0  0  0  0  0  0  0  0  0  0
   34.0962    9.0939    5.1459 H   0  0  0  0  0  0  0  0  0  0  0  0
   32.6613    8.4486    6.7573 H   0  0  0  0  0  0  0  0  0  0  0  0
   30.8748    8.8429    8.3723 H   0  0  0  0  0  0  0  0  0  0  0  0
   30.0188   11.0809    8.7672 H   0  0  0  0  0  0  0  0  0  0  0  0
   30.3175   13.1154    9.5132 H   0  0  0  0  0  0  0  0  0  0  0  0
   28.5556   13.0914    7.1128 H   0  0  0  0  0  0  0  0  0  0  0  0
   28.0952   12.6417    8.7553 H   0  0  0  0  0  0  0  0  0  0  0  0
   26.9939   14.6984    8.9332 H   0  0  0  0  0  0  0  0  0  0  0  0
   27.6462   15.2202    7.3450 H   0  0  0  0  0  0  0  0  0  0  0  0
   29.2443   16.9999   10.5128 H   0  0  0  0  0  0  0  0  0  0  0  0
   28.7795   16.6282   10.8093 H   0  0  0  0  0  0  0  0  0  0  0  0
   28.9926   17.6307    9.3433 H   0  0  0  0  0  0  0  0  0  0  0  0
   34.1724   12.6534    5.6839 H   0  0  0  0  0  0  0  0  0  0  0  0
   35.4751   14.9838    8.2614 H   0  0  0  0  0  0  0  0  0  0  0  0
   33.7607   15.2675    7.8445 H   0  0  0  0  0  0  0  0  0  0  0  0
   35.6187   14.4161    5.9187 H   0  0  0  0  0  0  0  0  0  0  0  0
  1  2  1  0
  2  3  4  0
  3  4  4  0
  4  5  4  0
  5  6  4  0
  6  7  1  0
  7  8  1  0
  8  9  1  0
  9 10  1  0
 10 11  1  0
 11 12  1  0
 11 13  1  0
 13 14  2  0
  6 15  4  0
 15 16  1  0
 16 17  1  0
 17 18  2  0
 17 19  1  0
 19 20  1  0
 15  2  4  0
 13  8  1  0
  1 21  1  0
  1 22  1  0
  1 23  1  0
  3 24  1  0
  4 25  1  0
  5 26  1  0
  8 27  1  0
  9 28  1  0
  9 29  1  0
 10 30  1  0
 10 31  1  0
 12 32  1  0
 12 33  1  0
 12 34  1  0
 16 35  1  0
 19 36  1  0
 19 37  1  0
 20 38  1  0
M  END
