LIG
     RDKit          3D

 38 39  0  0  0  0  0  0  0  0999 V2000
   34.1980   10.0910    5.5530 C   0  0  0  0  0  0  0  0  0  0  0  0
   33.0110   10.3720    6.4380 C   0  0  0  0  0  0  0  0  0  0  0  0
   32.1560    9.3390    6.8090 C   0  0  0  0  0  0  0  0  0  0  0  0
   31.0170    9.5590    7.5720 C   0  0  0  0  0  0  0  0  0  0  0  0
   30.7220   10.8640    7.9390 C   0  0  0  0  0  0  0  0  0  0  0  0
   31.5450   11.9340    7.6020 C   0  0  0  0  0  0  0  0  0  0  0  0
   31.1650   13.3330    8.0150 O   0  0  0  0  0  0  0  0  0  0  0  0
   30.0580   13.6540    8.5870 C   0  0  0  0  0  0  0  0  0  0  0  0
   28.5940   13.4330    8.1660 C   0  0  0  0  0  0  0  0  0  0  0  0
   27.8900   14.7750    8.3110 C   0  0  0  0  0  0  0  0  0  0  0  0
   28.8690   15.5850    9.0100 N   0  0  0  0  0  0  0  0  0  0  0  0
   28.4820   16.7650    9.7690 C   0  0  0  0  0  0  0  0  0  0  0  0
   30.1260   15.1410    8.9140 C   0  0  0  0  0  0  0  0  0  0  0  0
   31.1310   15.8110    9.0820 O   0  0  0  0  0  0  0  0  0  0  0  0
   32.7080   11.6650    6.8730 C   0  0  0  0  0  0  0  0  0  0  0  0
   33.6520   12.7090    6.6590 N   0  0  0  0  0  0  0  0  0  0  0  0
   34.4250   13.2280    7.6390 C   0  0  0  0  0  0  0  0  0  0  0  0
   34.9120   12.5690    8.5560 O   0  0  0  0  0  0  0  0  0  0  0  0
   34.6680   14.7180    7.5670 C   0  0  0  0  0  0  0  0  0  0  0  0
   35.0470   15.1300    6.2680 O   0  0  0  0  0  0  0  0  0  0  0  0
   34.1607   10.7156    4.6530 H   0  0  0  0  0  0  0  0  0  0  0  0
   34.8330   10.9733    5.4366 H   0  0  0  0  0  0  0  0  0  0  0  0
   35.1294   10.3180    6.0778 H   0  0  0  0  0  0  0  0  0  0  0  0
   32.3934    8.3051    6.5262 H   0  0  0  0  0  0  0  0  0  0  0  0
   30.3961    8.7398    7.8908 H   0  0  0  0  0  0  0  0  0  0  0  0
   29.7984   11.0570    8.5170 H   0  0  0  0  0  0  0  0  0  0  0  0
   29.9986   14.4976    7.0491 H   0  0  0  0  0  0  0  0  0  0  0  0
   28.5153   13.0267    7.1396 H   0  0  0  0  0  0  0  0  0  0  0  0
   28.1217   12.6754    8.8241 H   0  0  0  0  0  0  0  0  0  0  0  0
   27.6882   15.2357    7.3404 H   0  0  0  0  0  0  0  0  0  0  0  0
   26.9705   14.6991    8.8940 H   0  0  0  0  0  0  0  0  0  0  0  0
   28.4098   16.5223   10.8303 H   0  0  0  0  0  0  0  0  0  0  0  0
   27.3927   16.8201    9.8000 H   0  0  0  0  0  0  0  0  0  0  0  0
   28.8884   17.6457    9.2683 H   0  0  0  0  0  0  0  0  0  0  0  0
   33.9915   12.7993    5.7223 H   0  0  0  0  0  0  0  0  0  0  0  0
   35.4618   15.0180    8.2665 H   0  0  0  0  0  0  0  0  0  0  0  0
   33.7430   15.2477    7.8337 H   0  0  0  0  0  0  0  0  0  0  0  0
   35.5148   15.9822    6.3882 H   0  0  0  0  0  0  0  0  0  0  0  0
  1  2  1  0
  2  3  4  0
  3  4  4  0
  4  5  4  0
  5  6  4  0
  6  7  1  0
  7  8  1  0
  8  9  1  0
  9 10  1  0
 10 11  1  0
 11 12  1  0
 11 13  1  0
 13 14  2  0
  6 15  4  0
 15 16  1  0
 16 17  1  0
 17 18  2  0
 17 19  1  0
 19 20  1  0
 15  2  4  0
 13  8  1  0
  1 21  1  0
  1 22  1  0
  1 23  1  0
  3 24  1  0
  4 25  1  0
  5 26  1  0
  8 27  1  0
  9 28  1  0
  9 29  1  0
 10 30  1  0
 10 31  1  0
 12 32  1  0
 12 33  1  0
 12 34  1  0
 16 35  1  0
 19 36  1  0
 19 37  1  0
 20 38  1  0
M  END
$$$$
