LIG
     RDKit          3D

 40 41  0  0  0  0  0  0  0  0999 V2000
   30.7370    8.6550    8.4540 C   0  0  0  0  0  0  0  0  0  0  0  0
   31.3020    9.7050    7.8000 C   0  0  0  0  0  0  0  0  0  0  0  0
   30.8090   10.9600    8.0540 C   0  0  0  0  0  0  0  0  0  0  0  0
   31.3600   12.0190    7.3410 C   0  0  0  0  0  0  0  0  0  0  0  0
   30.9510   13.3300    7.5050 O   0  0  0  0  0  0  0  0  0  0  0  0
   30.0580   13.6540    8.5870 C   0  0  0  0  0  0  0  0  0  0  0  0
   28.5940   13.4330    8.1660 C   0  0  0  0  0  0  0  0  0  0  0  0
   27.8900   14.7750    8.3110 C   0  0  0  0  0  0  0  0  0  0  0  0
   28.8690   15.5850    9.0100 N   0  0  0  0  0  0  0  0  0  0  0  0
   28.4820   16.7650    9.7690 C   0  0  0  0  0  0  0  0  0  0  0  0
   30.1260   15.1410    8.9140 C   0  0  0  0  0  0  0  0  0  0  0  0
   31.1310   15.8110    9.0820 O   0  0  0  0  0  0  0  0  0  0  0  0
   32.3710   11.8060    6.4170 C   0  0  0  0  0  0  0  0  0  0  0  0
   33.6520   12.7090    6.6590 N   0  0  0  0  0  0  0  0  0  0  0  0
   34.4250   13.2280    7.6390 C   0  0  0  0  0  0  0  0  0  0  0  0
   34.9120   12.5690    8.5560 O   0  0  0  0  0  0  0  0  0  0  0  0
   34.6680   14.7180    7.5670 C   0  0  0  0  0  0  0  0  0  0  0  0
   35.0470   15.1300    6.2680 S   0  0  0  0  0  0  0  0  0  0  0  0
   32.8360   10.5190    6.2010 C   0  0  0  0  0  0  0  0  0  0  0  0
   34.1980   10.0910    5.5530 C   0  0  0  0  0  0  0  0  0  0  0  0
   32.2980    9.4490    6.8970 N   0  0  0  0  0  0  0  0  0  0  0  0
   29.6223    8.7284    8.5413 H   0  0  0  0  0  0  0  0  0  0  0  0
   31.0926    8.5263    9.5098 H   0  0  0  0  0  0  0  0  0  0  0  0
   30.1666    8.9537    9.3708 H   0  0  0  0  0  0  0  0  0  0  0  0
   30.0119   11.0978    8.7689 H   0  0  0  0  0  0  0  0  0  0  0  0
   29.6779   14.6653    7.0222 H   0  0  0  0  0  0  0  0  0  0  0  0
   28.5626   13.1193    7.1033 H   0  0  0  0  0  0  0  0  0  0  0  0
   28.0864   12.6423    8.7504 H   0  0  0  0  0  0  0  0  0  0  0  0
   27.6443   15.2232    7.3463 H   0  0  0  0  0  0  0  0  0  0  0  0
   26.9930   14.6969    8.9322 H   0  0  0  0  0  0  0  0  0  0  0  0
   29.0209   16.7586   10.7185 H   0  0  0  0  0  0  0  0  0  0  0  0
   29.3709   17.3679    9.9608 H   0  0  0  0  0  0  0  0  0  0  0  0
   28.7427   17.6673    9.2134 H   0  0  0  0  0  0  0  0  0  0  0  0
   33.7835   13.2335    5.7012 H   0  0  0  0  0  0  0  0  0  0  0  0
   33.6971   15.1544    7.9883 H   0  0  0  0  0  0  0  0  0  0  0  0
   35.4007   14.8962    8.4324 H   0  0  0  0  0  0  0  0  0  0  0  0
   34.5180   16.3962    6.1371 H   0  0  0  0  0  0  0  0  0  0  0  0
   34.1148    9.0586    5.2307 H   0  0  0  0  0  0  0  0  0  0  0  0
   34.0247    9.8311    4.5181 H   0  0  0  0  0  0  0  0  0  0  0  0
   34.3967   10.6987    4.6812 H   0  0  0  0  0  0  0  0  0  0  0  0
  1  2  1  0
  2  3  4  0
  3  4  4  0
  4  5  1  0
  5  6  1  0
  6  7  1  0
  7  8  1  0
  8  9  1  0
  9 10  1  0
  9 11  1  0
 11 12  2  0
  4 13  4  0
 13 14  1  0
 14 15  1  0
 15 16  2  0
 15 17  1  0
 17 18  1  0
 13 19  4  0
 19 20  1  0
 19 21  4  0
 21  2  4  0
 11  6  1  0
  1 22  1  0
  1 23  1  0
  1 24  1  0
  3 25  1  0
  6 26  1  0
  7 27  1  0
  7 28  1  0
  8 29  1  0
  8 30  1  0
 10 31  1  0
 10 32  1  0
 10 33  1  0
 14 34  1  0
 17 35  1  0
 17 36  1  0
 18 37  1  0
 20 38  1  0
 20 39  1  0
 20 40  1  0
M  END
$$$$
