LIG
     RDKit          3D

 40 41  0  0  0  0  0  0  0  0999 V2000
   30.1570    8.4110    8.0350 C   0  0  0  0  0  0  0  0  0  0  0  0
   31.0170    9.5590    7.5720 C   0  0  0  0  0  0  0  0  0  0  0  0
   30.7220   10.8640    7.9390 C   0  0  0  0  0  0  0  0  0  0  0  0
   31.5450   11.9340    7.6020 C   0  0  0  0  0  0  0  0  0  0  0  0
   31.1650   13.3330    8.0150 O   0  0  0  0  0  0  0  0  0  0  0  0
   30.0580   13.6540    8.5870 C   0  0  0  0  0  0  0  0  0  0  0  0
   28.5940   13.4330    8.1660 C   0  0  0  0  0  0  0  0  0  0  0  0
   27.8900   14.7750    8.3110 C   0  0  0  0  0  0  0  0  0  0  0  0
   28.8690   15.5850    9.0100 N   0  0  0  0  0  0  0  0  0  0  0  0
   28.4820   16.7650    9.7690 C   0  0  0  0  0  0  0  0  0  0  0  0
   30.1260   15.1410    8.9140 C   0  0  0  0  0  0  0  0  0  0  0  0
   31.1310   15.8110    9.0820 O   0  0  0  0  0  0  0  0  0  0  0  0
   32.7080   11.6650    6.8730 C   0  0  0  0  0  0  0  0  0  0  0  0
   33.6520   12.7090    6.6590 N   0  0  0  0  0  0  0  0  0  0  0  0
   34.4250   13.2280    7.6390 C   0  0  0  0  0  0  0  0  0  0  0  0
   34.9120   12.5690    8.5560 O   0  0  0  0  0  0  0  0  0  0  0  0
   34.6680   14.7180    7.5670 C   0  0  0  0  0  0  0  0  0  0  0  0
   35.0470   15.1300    6.2680 S   0  0  0  0  0  0  0  0  0  0  0  0
   33.0110   10.3720    6.4380 C   0  0  0  0  0  0  0  0  0  0  0  0
   34.1980   10.0910    5.5530 C   0  0  0  0  0  0  0  0  0  0  0  0
   32.1560    9.3390    6.8090 N   0  0  0  0  0  0  0  0  0  0  0  0
   29.3734    8.2096    7.3002 H   0  0  0  0  0  0  0  0  0  0  0  0
   29.6997    8.6524    8.9975 H   0  0  0  0  0  0  0  0  0  0  0  0
   30.7561    7.5044    8.1545 H   0  0  0  0  0  0  0  0  0  0  0  0
   29.7961   11.0621    8.5206 H   0  0  0  0  0  0  0  0  0  0  0  0
   29.9913   14.4901    7.0435 H   0  0  0  0  0  0  0  0  0  0  0  0
   28.1221   12.6740    8.8235 H   0  0  0  0  0  0  0  0  0  0  0  0
   28.5167   13.0282    7.1387 H   0  0  0  0  0  0  0  0  0  0  0  0
   27.6877   15.2355    7.3401 H   0  0  0  0  0  0  0  0  0  0  0  0
   26.9708   14.6995    8.8946 H   0  0  0  0  0  0  0  0  0  0  0  0
   29.2840   17.0107   10.4666 H   0  0  0  0  0  0  0  0  0  0  0  0
   29.2155   17.5517    9.5810 H   0  0  0  0  0  0  0  0  0  0  0  0
   28.4611   16.5359   10.8355 H   0  0  0  0  0  0  0  0  0  0  0  0
   33.9880   12.8050    5.7123 H   0  0  0  0  0  0  0  0  0  0  0  0
   33.7257   15.1966    8.0380 H   0  0  0  0  0  0  0  0  0  0  0  0
   35.4174   14.8851    8.4349 H   0  0  0  0  0  0  0  0  0  0  0  0
   36.0640   16.0329    6.4751 H   0  0  0  0  0  0  0  0  0  0  0  0
   34.9574    9.5003    6.0701 H   0  0  0  0  0  0  0  0  0  0  0  0
   33.8820    9.4994    4.6874 H   0  0  0  0  0  0  0  0  0  0  0  0
   34.6193   11.0246    5.1757 H   0  0  0  0  0  0  0  0  0  0  0  0
  1  2  1  0
  2  3  4  0
  3  4  4  0
  4  5  1  0
  5  6  1  0
  6  7  1  0
  7  8  1  0
  8  9  1  0
  9 10  1  0
  9 11  1  0
 11 12  2  0
  4 13  4  0
 13 14  1  0
 14 15  1  0
 15 16  2  0
 15 17  1  0
 17 18  1  0
 13 19  4  0
 19 20  1  0
 19 21  4  0
 21  2  4  0
 11  6  1  0
  1 22  1  0
  1 23  1  0
  1 24  1  0
  3 25  1  0
  6 26  1  0
  7 27  1  0
  7 28  1  0
  8 29  1  0
  8 30  1  0
 10 31  1  0
 10 32  1  0
 10 33  1  0
 14 34  1  0
 17 35  1  0
 17 36  1  0
 18 37  1  0
 20 38  1  0
 20 39  1  0
 20 40  1  0
M  END
