LIG
     RDKit          3D

 41 42  0  0  0  0  0  0  0  0999 V2000
   30.6417    8.4928    8.2019 C   0  0  0  0  0  0  0  0  0  0  0  0
   31.2955    9.6208    7.4745 C   0  0  0  0  0  0  0  0  0  0  0  0
   32.3823    9.4166    6.6194 C   0  0  0  0  0  0  0  0  0  0  0  0
   33.0977   10.4922    6.0870 C   0  0  0  0  0  0  0  0  0  0  0  0
   34.2524   10.2280    5.1676 C   0  0  0  0  0  0  0  0  0  0  0  0
   32.7364   11.7765    6.5078 C   0  0  0  0  0  0  0  0  0  0  0  0
   33.6489   12.8393    6.3842 N   0  0  0  0  0  0  0  0  0  0  0  0
   34.1715   13.3959    7.5560 C   0  0  0  0  0  0  0  0  0  0  0  0
   33.8649   13.0403    8.6996 O   0  0  0  0  0  0  0  0  0  0  0  0
   35.1773   14.5070    7.3376 C   0  0  0  0  0  0  0  0  0  0  0  0
   35.7348   14.6525    5.6145 S   0  0  0  0  0  0  0  0  0  0  0  0
   31.5466   11.9989    7.2169 C   0  0  0  0  0  0  0  0  0  0  0  0
   31.1702   13.3119    7.3893 O   0  0  0  0  0  0  0  0  0  0  0  0
   30.3218   13.5260    8.4765 C   0  0  0  0  0  0  0  0  0  0  0  0
   28.8863   13.7697    8.0424 C   0  0  0  0  0  0  0  0  0  0  0  0
   28.2757   14.2579    9.3315 C   0  0  0  0  0  0  0  0  0  0  0  0
   29.3169   15.0118    9.9791 N   0  0  0  0  0  0  0  0  0  0  0  0
   29.3812   15.0453   11.4169 C   0  0  0  0  0  0  0  0  0  0  0  0
   30.5538   14.7203    9.3798 C   0  0  0  0  0  0  0  0  0  0  0  0
   31.5996   15.2867    9.6505 O   0  0  0  0  0  0  0  0  0  0  0  0
   30.8268   10.9083    7.6876 C   0  0  0  0  0  0  0  0  0  0  0  0
   29.5549    8.5239    8.0920 H   0  0  0  0  0  0  0  0  0  0  0  0
   30.9975    7.5580    7.7861 H   0  0  0  0  0  0  0  0  0  0  0  0
   30.8922    8.5196    9.2654 H   0  0  0  0  0  0  0  0  0  0  0  0
   32.7132    8.4015    6.4142 H   0  0  0  0  0  0  0  0  0  0  0  0
   34.0209   10.6145    4.1695 H   0  0  0  0  0  0  0  0  0  0  0  0
   35.1697   10.7027    5.5231 H   0  0  0  0  0  0  0  0  0  0  0  0
   34.4543    9.1561    5.0693 H   0  0  0  0  0  0  0  0  0  0  0  0
   34.3592   12.7809    5.6615 H   0  0  0  0  0  0  0  0  0  0  0  0
   36.0469   14.3125    7.9708 H   0  0  0  0  0  0  0  0  0  0  0  0
   34.7101   15.4408    7.6426 H   0  0  0  0  0  0  0  0  0  0  0  0
   35.6456   15.9974    5.5447 H   0  0  0  0  0  0  0  0  0  0  0  0
   30.3846   12.7145    9.2006 H   0  0  0  0  0  0  0  0  0  0  0  0
   28.3907   12.8791    7.6463 H   0  0  0  0  0  0  0  0  0  0  0  0
   28.8451   14.5425    7.2643 H   0  0  0  0  0  0  0  0  0  0  0  0
   28.0022   13.4151    9.9704 H   0  0  0  0  0  0  0  0  0  0  0  0
   27.4129   14.9070    9.1714 H   0  0  0  0  0  0  0  0  0  0  0  0
   29.7916   14.1021   11.7825 H   0  0  0  0  0  0  0  0  0  0  0  0
   28.3917   15.1651   11.8462 H   0  0  0  0  0  0  0  0  0  0  0  0
   30.0560   15.8409   11.7439 H   0  0  0  0  0  0  0  0  0  0  0  0
   29.9149   11.0106    8.2638 H   0  0  0  0  0  0  0  0  0  0  0  0
  1  2  1  0
  2  3  2  0
  3  4  1  0
  4  5  1  0
  4  6  2  0
  6  7  1  0
  7  8  1  0
  8  9  2  0
  8 10  1  0
 10 11  1  0
  6 12  1  0
 12 13  1  0
 13 14  1  0
 14 15  1  0
 15 16  1  0
 16 17  1  0
 17 18  1  0
 17 19  1  0
 19 20  2  0
 12 21  2  0
 21  2  1  0
 19 14  1  0
  1 22  1  0
  1 23  1  0
  1 24  1  0
  3 25  1  0
  5 26  1  0
  5 27  1  0
  5 28  1  0
  7 29  1  0
 10 30  1  0
 10 31  1  0
 11 32  1  0
 14 33  1  0
 15 34  1  0
 15 35  1  0
 16 36  1  0
 16 37  1  0
 18 38  1  0
 18 39  1  0
 18 40  1  0
 21 41  1  0
M  END
