LIG
     RDKit          3D

 37 38  0  0  0  0  0  0  0  0999 V2000
   30.8117    8.4161    8.1228 C   0  0  0  0  0  0  0  0  0  0  0  0
   31.4293    9.5834    7.4379 C   0  0  0  0  0  0  0  0  0  0  0  0
   32.5128    9.4703    6.5785 C   0  0  0  0  0  0  0  0  0  0  0  0
   33.2040   10.5231    6.0952 N   0  0  0  0  0  0  0  0  0  0  0  0
   32.8219   11.7303    6.5500 C   0  0  0  0  0  0  0  0  0  0  0  0
   33.7434   12.7646    6.3944 N   0  0  0  0  0  0  0  0  0  0  0  0
   34.2392   13.3982    7.5307 C   0  0  0  0  0  0  0  0  0  0  0  0
   33.9081   13.1208    8.6883 O   0  0  0  0  0  0  0  0  0  0  0  0
   35.2324   14.5079    7.2516 C   0  0  0  0  0  0  0  0  0  0  0  0
   36.0829   14.3058    5.6618 S   0  0  0  0  0  0  0  0  0  0  0  0
   31.6483   11.9615    7.2647 C   0  0  0  0  0  0  0  0  0  0  0  0
   31.2844   13.2676    7.4684 O   0  0  0  0  0  0  0  0  0  0  0  0
   30.2344   13.4325    8.3744 C   0  0  0  0  0  0  0  0  0  0  0  0
   28.8777   13.3437    7.6680 C   0  0  0  0  0  0  0  0  0  0  0  0
   28.3145   14.7306    7.8190 C   0  0  0  0  0  0  0  0  0  0  0  0
   28.8712   15.2185    9.0523 N   0  0  0  0  0  0  0  0  0  0  0  0
   28.1664   14.8648   10.2459 C   0  0  0  0  0  0  0  0  0  0  0  0
   30.1960   14.7580    9.1119 C   0  0  0  0  0  0  0  0  0  0  0  0
   31.0930   15.3034    9.7361 O   0  0  0  0  0  0  0  0  0  0  0  0
   30.9519   10.8514    7.7175 C   0  0  0  0  0  0  0  0  0  0  0  0
   31.1508    7.5127    7.6304 H   0  0  0  0  0  0  0  0  0  0  0  0
   31.1150    8.3765    9.1716 H   0  0  0  0  0  0  0  0  0  0  0  0
   29.7200    8.4536    8.0752 H   0  0  0  0  0  0  0  0  0  0  0  0
   32.9067    8.5006    6.2907 H   0  0  0  0  0  0  0  0  0  0  0  0
   34.4648   12.5686    5.7106 H   0  0  0  0  0  0  0  0  0  0  0  0
   35.9791   14.5095    8.0499 H   0  0  0  0  0  0  0  0  0  0  0  0
   34.7057   15.4601    7.2497 H   0  0  0  0  0  0  0  0  0  0  0  0
   36.8126   13.2418    6.0321 H   0  0  0  0  0  0  0  0  0  0  0  0
   30.3025   12.7222    9.1960 H   0  0  0  0  0  0  0  0  0  0  0  0
   28.9353   13.0407    6.6178 H   0  0  0  0  0  0  0  0  0  0  0  0
   28.2357   12.6264    8.1877 H   0  0  0  0  0  0  0  0  0  0  0  0
   28.6766   15.3775    7.0134 H   0  0  0  0  0  0  0  0  0  0  0  0
   27.2247   14.7600    7.8345 H   0  0  0  0  0  0  0  0  0  0  0  0
   28.0650   13.7782   10.3254 H   0  0  0  0  0  0  0  0  0  0  0  0
   28.7076   15.1885   11.1389 H   0  0  0  0  0  0  0  0  0  0  0  0
   27.1804   15.3083   10.1769 H   0  0  0  0  0  0  0  0  0  0  0  0
   30.0613   10.9127    8.3312 H   0  0  0  0  0  0  0  0  0  0  0  0
  1  2  1  0
  2  3  2  0
  3  4  1  0
  4  5  2  0
  5  6  1  0
  6  7  1  0
  7  8  2  0
  7  9  1  0
  9 10  1  0
  5 11  1  0
 11 12  1  0
 12 13  1  0
 13 14  1  0
 14 15  1  0
 15 16  1  0
 16 17  1  0
 16 18  1  0
 18 19  2  0
 11 20  2  0
 20  2  1  0
 18 13  1  0
  1 21  1  0
  1 22  1  0
  1 23  1  0
  3 24  1  0
  6 25  1  0
  9 26  1  0
  9 27  1  0
 10 28  1  0
 13 29  1  0
 14 30  1  0
 14 31  1  0
 15 32  1  0
 15 33  1  0
 17 34  1  0
 17 35  1  0
 17 36  1  0
 20 37  1  0
M  END
