LIG
     RDKit          3D

 49 51  0  0  0  0  0  0  0  0999 V2000
   33.9229    9.4655    5.5779 C   0  0  0  0  0  0  0  0  0  0  0  0
   32.7426    9.8571    6.4256 C   0  0  0  0  0  0  0  0  0  0  0  0
   32.1129    8.9019    7.2230 C   0  0  0  0  0  0  0  0  0  0  0  0
   31.0562    9.2439    8.0431 C   0  0  0  0  0  0  0  0  0  0  0  0
   30.6182   10.5599    8.0625 C   0  0  0  0  0  0  0  0  0  0  0  0
   31.2087   11.5513    7.2638 C   0  0  0  0  0  0  0  0  0  0  0  0
   30.7699   12.8554    7.2448 O   0  0  0  0  0  0  0  0  0  0  0  0
   30.1070   13.3263    8.3788 C   0  0  0  0  0  0  0  0  0  0  0  0
   28.6783   13.7093    8.0272 C   0  0  0  0  0  0  0  0  0  0  0  0
   28.2092   14.3151    9.3258 C   0  0  0  0  0  0  0  0  0  0  0  0
   29.3531   14.9956    9.8648 N   0  0  0  0  0  0  0  0  0  0  0  0
   29.5144   15.0925   11.2953 C   0  0  0  0  0  0  0  0  0  0  0  0
   30.5198   14.5429    9.2148 C   0  0  0  0  0  0  0  0  0  0  0  0
   31.6250   14.9957    9.4550 O   0  0  0  0  0  0  0  0  0  0  0  0
   32.2413   11.1682    6.3931 C   0  0  0  0  0  0  0  0  0  0  0  0
   32.8225   11.9002    5.3978 O   0  0  0  0  0  0  0  0  0  0  0  0
   32.5564   13.2751    5.2496 C   0  0  0  0  0  0  0  0  0  0  0  0
   33.4636   13.9597    6.2349 C   0  0  0  0  0  0  0  0  0  0  0  0
   33.2703   13.8266    7.4474 O   0  0  0  0  0  0  0  0  0  0  0  0
   34.5251   14.6977    5.7560 N   0  0  0  0  0  0  0  0  0  0  0  0
   35.5986   14.8882    6.7182 C   0  0  0  0  0  0  0  0  0  0  0  0
   36.6182   13.7723    6.4763 C   0  0  0  0  0  0  0  0  0  0  0  0
   37.1884   13.9305    5.1604 O   0  0  0  0  0  0  0  0  0  0  0  0
   36.1621   13.7634    4.1634 C   0  0  0  0  0  0  0  0  0  0  0  0
   35.0191   14.7636    4.3715 C   0  0  0  0  0  0  0  0  0  0  0  0
   34.6857   10.2507    5.5687 H   0  0  0  0  0  0  0  0  0  0  0  0
   33.6031    9.2773    4.5496 H   0  0  0  0  0  0  0  0  0  0  0  0
   34.4022    8.5614    5.9566 H   0  0  0  0  0  0  0  0  0  0  0  0
   32.4537    7.8754    7.2196 H   0  0  0  0  0  0  0  0  0  0  0  0
   30.5693    8.4840    8.6493 H   0  0  0  0  0  0  0  0  0  0  0  0
   29.7585   10.7545    8.6848 H   0  0  0  0  0  0  0  0  0  0  0  0
   30.0966   12.5754    9.1565 H   0  0  0  0  0  0  0  0  0  0  0  0
   28.6680   14.4475    7.2151 H   0  0  0  0  0  0  0  0  0  0  0  0
   28.0701   12.8584    7.7074 H   0  0  0  0  0  0  0  0  0  0  0  0
   27.3937   15.0290    9.1953 H   0  0  0  0  0  0  0  0  0  0  0  0
   27.9179   13.5303   10.0284 H   0  0  0  0  0  0  0  0  0  0  0  0
   29.8984   14.1451   11.6796 H   0  0  0  0  0  0  0  0  0  0  0  0
   28.5632   15.2815   11.7858 H   0  0  0  0  0  0  0  0  0  0  0  0
   30.2491   15.8657   11.5389 H   0  0  0  0  0  0  0  0  0  0  0  0
   32.7884   13.5169    4.2159 H   0  0  0  0  0  0  0  0  0  0  0  0
   31.5118   13.5700    5.3495 H   0  0  0  0  0  0  0  0  0  0  0  0
   35.2514   14.8785    7.7548 H   0  0  0  0  0  0  0  0  0  0  0  0
   36.0355   15.8597    6.5026 H   0  0  0  0  0  0  0  0  0  0  0  0
   37.4299   13.7747    7.2061 H   0  0  0  0  0  0  0  0  0  0  0  0
   36.1470   12.7882    6.5211 H   0  0  0  0  0  0  0  0  0  0  0  0
   36.6225   13.9162    3.1824 H   0  0  0  0  0  0  0  0  0  0  0  0
   35.7947   12.7310    4.2045 H   0  0  0  0  0  0  0  0  0  0  0  0
   34.2301   14.6225    3.6343 H   0  0  0  0  0  0  0  0  0  0  0  0
   35.4193   15.7668    4.2113 H   0  0  0  0  0  0  0  0  0  0  0  0
  1  2  1  0
  2  3  2  0
  3  4  1  0
  4  5  2  0
  5  6  1  0
  6  7  1  0
  7  8  1  0
  8  9  1  0
  9 10  1  0
 10 11  1  0
 11 12  1  0
 11 13  1  0
 13 14  2  0
  6 15  2  0
 15 16  1  0
 16 17  1  0
 17 18  1  0
 18 19  2  0
 18 20  1  0
 20 21  1  0
 21 22  1  0
 22 23  1  0
 23 24  1  0
 24 25  1  0
 15  2  1  0
 25 20  1  0
 13  8  1  0
  1 26  1  0
  1 27  1  0
  1 28  1  0
  3 29  1  0
  4 30  1  0
  5 31  1  0
  8 32  1  0
  9 33  1  0
  9 34  1  0
 10 35  1  0
 10 36  1  0
 12 37  1  0
 12 38  1  0
 12 39  1  0
 17 40  1  0
 17 41  1  0
 21 42  1  0
 21 43  1  0
 22 44  1  0
 22 45  1  0
 24 46  1  0
 24 47  1  0
 25 48  1  0
 25 49  1  0
M  END
