LIG
     RDKit          3D

 33 33  0  0  0  0  0  0  0  0999 V2000
   32.7122   16.7984    9.4719 C   0  0  0  0  0  0  0  0  0  0  0  0
   32.3358   15.4971    8.9439 N   0  0  0  0  0  0  0  0  0  0  0  0
   33.0527   14.3418    9.3733 C   0  0  0  0  0  0  0  0  0  0  0  0
   31.9394   15.5166    7.6248 C   0  0  0  0  0  0  0  0  0  0  0  0
   32.0227   16.5613    6.9738 O   0  0  0  0  0  0  0  0  0  0  0  0
   31.3241   14.3123    6.9200 C   0  0  0  0  0  0  0  0  0  0  0  0
   31.3276   13.0055    7.4672 O   0  0  0  0  0  0  0  0  0  0  0  0
   31.9414   12.0942    6.6621 C   0  0  0  0  0  0  0  0  0  0  0  0
   31.5296   10.7841    6.4832 C   0  0  0  0  0  0  0  0  0  0  0  0
   32.3190    9.8292    5.9328 N   0  0  0  0  0  0  0  0  0  0  0  0
   33.6046   10.1795    5.6804 C   0  0  0  0  0  0  0  0  0  0  0  0
   34.0900   11.4531    5.9120 C   0  0  0  0  0  0  0  0  0  0  0  0
   35.4402   11.8515    5.9451 N   0  0  0  0  0  0  0  0  0  0  0  0
   35.8264   12.6545    7.0305 C   0  0  0  0  0  0  0  0  0  0  0  0
   35.4665   12.4443    8.1873 O   0  0  0  0  0  0  0  0  0  0  0  0
   36.6918   13.8388    6.6686 C   0  0  0  0  0  0  0  0  0  0  0  0
   35.6892   15.2881    6.2511 S   0  0  0  0  0  0  0  0  0  0  0  0
   33.1998   12.4288    6.2632 C   0  0  0  0  0  0  0  0  0  0  0  0
   31.9936   17.5620    9.1535 H   0  0  0  0  0  0  0  0  0  0  0  0
   32.7511   16.8307   10.5516 H   0  0  0  0  0  0  0  0  0  0  0  0
   33.6977   17.0669    9.0755 H   0  0  0  0  0  0  0  0  0  0  0  0
   32.3858   13.6337    9.8384 H   0  0  0  0  0  0  0  0  0  0  0  0
   33.8832   14.6064   10.0323 H   0  0  0  0  0  0  0  0  0  0  0  0
   33.5240   13.8600    8.5240 H   0  0  0  0  0  0  0  0  0  0  0  0
   31.7432   14.3371    5.9010 H   0  0  0  0  0  0  0  0  0  0  0  0
   30.2999   14.6112    6.7035 H   0  0  0  0  0  0  0  0  0  0  0  0
   30.5740   10.4225    6.8337 H   0  0  0  0  0  0  0  0  0  0  0  0
   34.2457    9.3658    5.3601 H   0  0  0  0  0  0  0  0  0  0  0  0
   36.1244   11.1540    5.6789 H   0  0  0  0  0  0  0  0  0  0  0  0
   37.3336   13.5851    5.8192 H   0  0  0  0  0  0  0  0  0  0  0  0
   37.3413   14.0715    7.5181 H   0  0  0  0  0  0  0  0  0  0  0  0
   36.6963   16.1713    6.2188 H   0  0  0  0  0  0  0  0  0  0  0  0
   33.5633   13.4367    6.4055 H   0  0  0  0  0  0  0  0  0  0  0  0
  1  2  1  0
  2  3  1  0
  2  4  1  0
  4  5  2  0
  4  6  1  0
  6  7  1  0
  7  8  1  0
  8  9  2  0
  9 10  1  0
 10 11  2  0
 11 12  1  0
 12 13  1  0
 13 14  1  0
 14 15  2  0
 14 16  1  0
 16 17  1  0
 12 18  2  0
 18  8  1  0
  1 19  1  0
  1 20  1  0
  1 21  1  0
  3 22  1  0
  3 23  1  0
  3 24  1  0
  6 25  1  0
  6 26  1  0
  9 27  1  0
 11 28  1  0
 13 29  1  0
 16 30  1  0
 16 31  1  0
 17 32  1  0
 18 33  1  0
M  END
