LIG
     RDKit          3D

 42 43  0  0  0  0  0  0  0  0999 V2000
   30.2961   11.5575    8.2949 C   0  0  0  0  0  0  0  0  0  0  0  0
   31.1989   12.4555    7.5219 C   0  0  0  0  0  0  0  0  0  0  0  0
   32.4754   12.7306    8.0004 C   0  0  0  0  0  0  0  0  0  0  0  0
   33.4993   13.0498    7.1304 C   0  0  0  0  0  0  0  0  0  0  0  0
   33.2193   13.1669    5.7856 C   0  0  0  0  0  0  0  0  0  0  0  0
   34.3165   13.2298    4.9893 O   0  0  0  0  0  0  0  0  0  0  0  0
   34.0896   13.2488    3.5950 C   0  0  0  0  0  0  0  0  0  0  0  0
   33.8946   14.6824    3.1208 C   0  0  0  0  0  0  0  0  0  0  0  0
   32.7636   15.1214    2.8934 O   0  0  0  0  0  0  0  0  0  0  0  0
   35.0642   15.4211    2.9280 N   0  0  0  0  0  0  0  0  0  0  0  0
   36.1972   15.2398    3.8514 C   0  0  0  0  0  0  0  0  0  0  0  0
   37.4565   15.9813    3.4045 C   0  0  0  0  0  0  0  0  0  0  0  0
   37.1963   17.3490    3.0872 O   0  0  0  0  0  0  0  0  0  0  0  0
   36.2187   17.4394    2.0449 C   0  0  0  0  0  0  0  0  0  0  0  0
   34.8925   16.7834    2.4301 C   0  0  0  0  0  0  0  0  0  0  0  0
   31.8888   13.2274    5.3821 C   0  0  0  0  0  0  0  0  0  0  0  0
   30.8583   12.9571    6.2838 C   0  0  0  0  0  0  0  0  0  0  0  0
   29.5509   13.1646    5.8357 N   0  0  0  0  0  0  0  0  0  0  0  0
   28.3709   13.4362    6.4526 C   0  0  0  0  0  0  0  0  0  0  0  0
   27.3726   13.2922    5.7281 O   0  0  0  0  0  0  0  0  0  0  0  0
   28.1548   13.8548    7.8847 C   0  0  0  0  0  0  0  0  0  0  0  0
   29.2036   14.6080    8.5550 C   0  0  0  0  0  0  0  0  0  0  0  0
   30.0202   15.1489    9.1792 N   0  0  0  0  0  0  0  0  0  0  0  0
   29.5340   11.1079    7.6571 H   0  0  0  0  0  0  0  0  0  0  0  0
   29.8096   12.1417    9.0558 H   0  0  0  0  0  0  0  0  0  0  0  0
   30.8509   10.7273    8.7400 H   0  0  0  0  0  0  0  0  0  0  0  0
   32.7012   12.6602    9.0488 H   0  0  0  0  0  0  0  0  0  0  0  0
   34.5190   13.1515    7.4924 H   0  0  0  0  0  0  0  0  0  0  0  0
   33.2595   12.6110    3.2686 H   0  0  0  0  0  0  0  0  0  0  0  0
   34.9694   12.8258    3.0963 H   0  0  0  0  0  0  0  0  0  0  0  0
   36.4444   14.1794    3.9466 H   0  0  0  0  0  0  0  0  0  0  0  0
   35.8770   15.5819    4.8388 H   0  0  0  0  0  0  0  0  0  0  0  0
   38.2089   15.9537    4.1987 H   0  0  0  0  0  0  0  0  0  0  0  0
   37.8948   15.4956    2.5240 H   0  0  0  0  0  0  0  0  0  0  0  0
   36.6289   16.9765    1.1391 H   0  0  0  0  0  0  0  0  0  0  0  0
   36.0585   18.5000    1.8262 H   0  0  0  0  0  0  0  0  0  0  0  0
   34.3801   17.3673    3.1965 H   0  0  0  0  0  0  0  0  0  0  0  0
   34.2267   16.7603    1.5591 H   0  0  0  0  0  0  0  0  0  0  0  0
   31.6244   13.4999    4.3670 H   0  0  0  0  0  0  0  0  0  0  0  0
   29.4194   13.2045    4.8315 H   0  0  0  0  0  0  0  0  0  0  0  0
   27.8911   12.9633    8.4551 H   0  0  0  0  0  0  0  0  0  0  0  0
   27.2704   14.5012    7.8801 H   0  0  0  0  0  0  0  0  0  0  0  0
  1  2  1  0
  2  3  2  0
  3  4  1  0
  4  5  2  0
  5  6  1  0
  6  7  1  0
  7  8  1  0
  8  9  2  0
  8 10  1  0
 10 11  1  0
 11 12  1  0
 12 13  1  0
 13 14  1  0
 14 15  1  0
  5 16  1  0
 16 17  2  0
 17 18  1  0
 18 19  1  0
 19 20  2  0
 19 21  1  0
 21 22  1  0
 22 23  3  0
 17  2  1  0
 15 10  1  0
  1 24  1  0
  1 25  1  0
  1 26  1  0
  3 27  1  0
  4 28  1  0
  7 29  1  0
  7 30  1  0
 11 31  1  0
 11 32  1  0
 12 33  1  0
 12 34  1  0
 14 35  1  0
 14 36  1  0
 15 37  1  0
 15 38  1  0
 16 39  1  0
 18 40  1  0
 21 41  1  0
 21 42  1  0
M  END
