LIG
     RDKit          3D

 37 37  0  0  0  0  0  0  0  0999 V2000
    5.5654   -2.0776    0.4815 C   0  0  0  0  0  0  0  0  0  0  0  0
    4.3116   -1.2911    0.2279 C   0  0  0  0  0  0  0  0  0  0  0  0
    3.0900   -1.7479    0.7349 C   0  0  0  0  0  0  0  0  0  0  0  0
    1.9060   -1.0321    0.5184 C   0  0  0  0  0  0  0  0  0  0  0  0
    1.9167    0.1635   -0.2007 C   0  0  0  0  0  0  0  0  0  0  0  0
    0.6863    0.8326   -0.3405 N   0  0  0  0  0  0  0  0  0  0  0  0
    0.4339    2.0402   -0.9685 C   0  0  0  0  0  0  0  0  0  0  0  0
    1.2278    2.7205   -1.6138 O   0  0  0  0  0  0  0  0  0  0  0  0
   -1.0321    2.4645   -0.8436 C   0  0  0  0  0  0  0  0  0  0  0  0
   -1.5500    2.2547    0.4625 O   0  0  0  0  0  0  0  0  0  0  0  0
   -2.8561    1.6958    0.4792 C   0  0  0  0  0  0  0  0  0  0  0  0
   -2.8766    0.1834    0.1845 C   0  0  0  0  0  0  0  0  0  0  0  0
   -1.8178   -0.4293    0.0463 O   0  0  0  0  0  0  0  0  0  0  0  0
   -4.1139   -0.4352    0.0681 N   0  0  0  0  0  0  0  0  0  0  0  0
   -5.3852    0.2593    0.1540 C   0  0  0  0  0  0  0  0  0  0  0  0
   -4.1693   -1.8092   -0.3947 C   0  0  0  0  0  0  0  0  0  0  0  0
    3.1285    0.6254   -0.7119 C   0  0  0  0  0  0  0  0  0  0  0  0
    4.3082   -0.0981   -0.5001 C   0  0  0  0  0  0  0  0  0  0  0  0
    5.4446    0.4316   -1.0409 O   0  0  0  0  0  0  0  0  0  0  0  0
    5.3686   -2.9730    1.0765 H   0  0  0  0  0  0  0  0  0  0  0  0
    6.2830   -1.4650    1.0354 H   0  0  0  0  0  0  0  0  0  0  0  0
    6.0118   -2.4029   -0.4629 H   0  0  0  0  0  0  0  0  0  0  0  0
    3.0438   -2.6673    1.3086 H   0  0  0  0  0  0  0  0  0  0  0  0
    0.9739   -1.4187    0.9269 H   0  0  0  0  0  0  0  0  0  0  0  0
   -0.1287    0.3799    0.0759 H   0  0  0  0  0  0  0  0  0  0  0  0
   -1.0984    3.5330   -1.0557 H   0  0  0  0  0  0  0  0  0  0  0  0
   -1.6047    1.9321   -1.6073 H   0  0  0  0  0  0  0  0  0  0  0  0
   -3.2415    1.8409    1.4977 H   0  0  0  0  0  0  0  0  0  0  0  0
   -3.5043    2.2372   -0.2339 H   0  0  0  0  0  0  0  0  0  0  0  0
   -6.1142   -0.3943    0.6472 H   0  0  0  0  0  0  0  0  0  0  0  0
   -5.7209    0.4949   -0.8607 H   0  0  0  0  0  0  0  0  0  0  0  0
   -5.3065    1.1759    0.7284 H   0  0  0  0  0  0  0  0  0  0  0  0
   -4.8806   -2.3661    0.2226 H   0  0  0  0  0  0  0  0  0  0  0  0
   -4.5077   -1.8063   -1.4352 H   0  0  0  0  0  0  0  0  0  0  0  0
   -3.1923   -2.3029   -0.3422 H   0  0  0  0  0  0  0  0  0  0  0  0
    3.1894    1.5454   -1.2783 H   0  0  0  0  0  0  0  0  0  0  0  0
    6.2113   -0.0936   -0.7700 H   0  0  0  0  0  0  0  0  0  0  0  0
  1  2  1  0
  2  3  2  0
  3  4  1  0
  4  5  2  0
  5  6  1  0
  6  7  1  0
  7  8  2  0
  7  9  1  0
  9 10  1  0
 10 11  1  0
 11 12  1  0
 12 13  2  0
 12 14  1  0
 14 15  1  0
 14 16  1  0
  5 17  1  0
 17 18  2  0
 18 19  1  0
 18  2  1  0
  1 20  1  0
  1 21  1  0
  1 22  1  0
  3 23  1  0
  4 24  1  0
  6 25  1  0
  9 26  1  0
  9 27  1  0
 11 28  1  0
 11 29  1  0
 15 30  1  0
 15 31  1  0
 15 32  1  0
 16 33  1  0
 16 34  1  0
 16 35  1  0
 17 36  1  0
 19 37  1  0
M  END
