LIG
     RDKit          3D

 48 49  0  0  0  0  0  0  0  0999 V2000
   -0.7082   -3.2902    1.6786 C   0  0  0  0  0  0  0  0  0  0  0  0
   -0.2282   -1.8830    1.4531 C   0  0  0  0  0  0  0  0  0  0  0  0
    0.9847   -1.4629    2.0156 C   0  0  0  0  0  0  0  0  0  0  0  0
    1.4509   -0.1602    1.8214 C   0  0  0  0  0  0  0  0  0  0  0  0
    0.7101    0.7369    1.0577 C   0  0  0  0  0  0  0  0  0  0  0  0
    1.0472    2.0325    0.7752 O   0  0  0  0  0  0  0  0  0  0  0  0
    2.2782    2.5293    1.2747 C   0  0  0  0  0  0  0  0  0  0  0  0
    3.5590    2.0043    0.6065 C   0  0  0  0  0  0  0  0  0  0  0  0
    4.4818    1.5720    1.3026 O   0  0  0  0  0  0  0  0  0  0  0  0
    3.6490    2.0626   -0.7739 N   0  0  0  0  0  0  0  0  0  0  0  0
    4.8241    1.5016   -1.4425 C   0  0  0  0  0  0  0  0  0  0  0  0
    4.4647    0.9820   -2.8371 C   0  0  0  0  0  0  0  0  0  0  0  0
    3.9039    1.9837   -3.6986 O   0  0  0  0  0  0  0  0  0  0  0  0
    3.2236    3.0381   -3.0055 C   0  0  0  0  0  0  0  0  0  0  0  0
    2.6195    2.6059   -1.6648 C   0  0  0  0  0  0  0  0  0  0  0  0
   -0.5053    0.3239    0.4986 C   0  0  0  0  0  0  0  0  0  0  0  0
   -0.9843   -0.9755    0.6936 C   0  0  0  0  0  0  0  0  0  0  0  0
   -2.1618   -1.4619    0.1895 O   0  0  0  0  0  0  0  0  0  0  0  0
   -3.0153   -0.5460   -0.4838 C   0  0  0  0  0  0  0  0  0  0  0  0
   -4.3186   -1.2335   -0.8994 C   0  0  0  0  0  0  0  0  0  0  0  0
   -4.6105   -1.3197   -2.0959 O   0  0  0  0  0  0  0  0  0  0  0  0
   -5.1655   -1.7024    0.1053 N   0  0  0  0  0  0  0  0  0  0  0  0
   -6.3266   -2.4830   -0.2878 C   0  0  0  0  0  0  0  0  0  0  0  0
   -4.7801   -1.7902    1.5056 C   0  0  0  0  0  0  0  0  0  0  0  0
   -1.6413   -3.2835    2.2512 H   0  0  0  0  0  0  0  0  0  0  0  0
    0.0241   -3.8797    2.2400 H   0  0  0  0  0  0  0  0  0  0  0  0
   -0.8721   -3.7953    0.7210 H   0  0  0  0  0  0  0  0  0  0  0  0
    1.5815   -2.1512    2.6112 H   0  0  0  0  0  0  0  0  0  0  0  0
    2.3973    0.1079    2.2807 H   0  0  0  0  0  0  0  0  0  0  0  0
    2.3419    2.3811    2.3601 H   0  0  0  0  0  0  0  0  0  0  0  0
    2.2721    3.6167    1.1333 H   0  0  0  0  0  0  0  0  0  0  0  0
    5.2615    0.7003   -0.8380 H   0  0  0  0  0  0  0  0  0  0  0  0
    5.5568    2.3133   -1.5185 H   0  0  0  0  0  0  0  0  0  0  0  0
    5.3536    0.5805   -3.3335 H   0  0  0  0  0  0  0  0  0  0  0  0
    3.7347    0.1677   -2.7619 H   0  0  0  0  0  0  0  0  0  0  0  0
    3.9439    3.8500   -2.8517 H   0  0  0  0  0  0  0  0  0  0  0  0
    2.4401    3.4175   -3.6691 H   0  0  0  0  0  0  0  0  0  0  0  0
    1.8883    1.8062   -1.8268 H   0  0  0  0  0  0  0  0  0  0  0  0
    2.1171    3.4527   -1.1900 H   0  0  0  0  0  0  0  0  0  0  0  0
   -1.0549    1.0477   -0.0942 H   0  0  0  0  0  0  0  0  0  0  0  0
   -2.5282   -0.1912   -1.4003 H   0  0  0  0  0  0  0  0  0  0  0  0
   -3.2709    0.3138    0.1469 H   0  0  0  0  0  0  0  0  0  0  0  0
   -6.6341   -2.2674   -1.3145 H   0  0  0  0  0  0  0  0  0  0  0  0
   -7.1603   -2.2498    0.3807 H   0  0  0  0  0  0  0  0  0  0  0  0
   -6.0768   -3.5454   -0.2083 H   0  0  0  0  0  0  0  0  0  0  0  0
   -4.2671   -2.7423    1.6686 H   0  0  0  0  0  0  0  0  0  0  0  0
   -4.1237   -0.9684    1.7963 H   0  0  0  0  0  0  0  0  0  0  0  0
   -5.6759   -1.7455    2.1325 H   0  0  0  0  0  0  0  0  0  0  0  0
  1  2  1  0
  2  3  2  0
  3  4  1  0
  4  5  2  0
  5  6  1  0
  6  7  1  0
  7  8  1  0
  8  9  2  0
  8 10  1  0
 10 11  1  0
 11 12  1  0
 12 13  1  0
 13 14  1  0
 14 15  1  0
  5 16  1  0
 16 17  2  0
 17 18  1  0
 18 19  1  0
 19 20  1  0
 20 21  2  0
 20 22  1  0
 22 23  1  0
 22 24  1  0
 17  2  1  0
 15 10  1  0
  1 25  1  0
  1 26  1  0
  1 27  1  0
  3 28  1  0
  4 29  1  0
  7 30  1  0
  7 31  1  0
 11 32  1  0
 11 33  1  0
 12 34  1  0
 12 35  1  0
 14 36  1  0
 14 37  1  0
 15 38  1  0
 15 39  1  0
 16 40  1  0
 19 41  1  0
 19 42  1  0
 23 43  1  0
 23 44  1  0
 23 45  1  0
 24 46  1  0
 24 47  1  0
 24 48  1  0
M  END
