LIG
     RDKit          3D

 34 35  0  0  0  0  0  0  0  0999 V2000
    6.8377   -1.1717   -1.8067 N   0  0  0  0  0  0  0  0  0  0  0  0
    5.8563   -0.9321   -2.3776 C   0  0  0  0  0  0  0  0  0  0  0  0
    4.6306   -0.5555   -3.0779 C   0  0  0  0  0  0  0  0  0  0  0  0
    3.4485   -0.5313   -2.1330 C   0  0  0  0  0  0  0  0  0  0  0  0
    2.4859   -1.2636   -2.3379 O   0  0  0  0  0  0  0  0  0  0  0  0
    3.5646    0.3958   -1.1067 N   0  0  0  0  0  0  0  0  0  0  0  0
    2.6055    0.6997   -0.1115 C   0  0  0  0  0  0  0  0  0  0  0  0
    3.0075    1.5722    0.8991 C   0  0  0  0  0  0  0  0  0  0  0  0
    2.1014    1.8930    1.8916 C   0  0  0  0  0  0  0  0  0  0  0  0
    0.8422    1.4172    1.9345 N   0  0  0  0  0  0  0  0  0  0  0  0
    0.4574    0.5812    0.9457 C   0  0  0  0  0  0  0  0  0  0  0  0
   -0.8661    0.1658    1.0928 N   0  0  0  0  0  0  0  0  0  0  0  0
   -1.6186   -0.6388    0.2620 C   0  0  0  0  0  0  0  0  0  0  0  0
   -1.2389   -1.1268   -0.7969 O   0  0  0  0  0  0  0  0  0  0  0  0
   -3.0500   -0.8511    0.8020 C   0  0  0  0  0  0  0  0  0  0  0  0
   -3.8669    0.4343    0.6841 C   0  0  0  0  0  0  0  0  0  0  0  0
   -5.2354   -0.0589    0.2846 C   0  0  0  0  0  0  0  0  0  0  0  0
   -4.8952   -1.2720   -0.5455 C   0  0  0  0  0  0  0  0  0  0  0  0
   -3.7807   -1.8757    0.1153 O   0  0  0  0  0  0  0  0  0  0  0  0
    1.3031    0.1975   -0.0876 C   0  0  0  0  0  0  0  0  0  0  0  0
    4.4213   -1.2680   -3.8832 H   0  0  0  0  0  0  0  0  0  0  0  0
    4.7287    0.4347   -3.5361 H   0  0  0  0  0  0  0  0  0  0  0  0
    4.4594    0.8620   -1.0022 H   0  0  0  0  0  0  0  0  0  0  0  0
    4.0056    1.9940    0.9348 H   0  0  0  0  0  0  0  0  0  0  0  0
    2.3730    2.5617    2.7036 H   0  0  0  0  0  0  0  0  0  0  0  0
   -1.2830    0.5423    1.9329 H   0  0  0  0  0  0  0  0  0  0  0  0
   -2.9760   -1.1694    1.8486 H   0  0  0  0  0  0  0  0  0  0  0  0
   -3.4635    1.0914   -0.0963 H   0  0  0  0  0  0  0  0  0  0  0  0
   -3.8795    1.0066    1.6168 H   0  0  0  0  0  0  0  0  0  0  0  0
   -5.8272    0.6825   -0.2582 H   0  0  0  0  0  0  0  0  0  0  0  0
   -5.7918   -0.3608    1.1797 H   0  0  0  0  0  0  0  0  0  0  0  0
   -4.5870   -0.9938   -1.5594 H   0  0  0  0  0  0  0  0  0  0  0  0
   -5.7201   -1.9865   -0.6096 H   0  0  0  0  0  0  0  0  0  0  0  0
    0.9512   -0.4758   -0.8569 H   0  0  0  0  0  0  0  0  0  0  0  0
  1  2  3  0
  2  3  1  0
  3  4  1  0
  4  5  2  0
  4  6  1  0
  6  7  1  0
  7  8  2  0
  8  9  1  0
  9 10  2  0
 10 11  1  0
 11 12  1  0
 12 13  1  0
 13 14  2  0
 13 15  1  0
 15 16  1  0
 16 17  1  0
 17 18  1  0
 18 19  1  0
 11 20  2  0
 20  7  1  0
 19 15  1  0
  3 21  1  0
  3 22  1  0
  6 23  1  0
  8 24  1  0
  9 25  1  0
 12 26  1  0
 15 27  1  0
 16 28  1  0
 16 29  1  0
 17 30  1  0
 17 31  1  0
 18 32  1  0
 18 33  1  0
 20 34  1  0
M  END
