LIG
     RDKit          3D

 40 40  0  0  0  0  0  0  0  0999 V2000
   30.1751    8.8118    8.4151 C   0  0  0  0  0  0  0  0  0  0  0  0
   30.9177    9.9415    7.7728 C   0  0  0  0  0  0  0  0  0  0  0  0
   32.0390    9.6512    6.9805 C   0  0  0  0  0  0  0  0  0  0  0  0
   32.8494   10.6733    6.4777 C   0  0  0  0  0  0  0  0  0  0  0  0
   33.9866   10.3346    5.5570 C   0  0  0  0  0  0  0  0  0  0  0  0
   32.5116   11.9896    6.8070 C   0  0  0  0  0  0  0  0  0  0  0  0
   33.3934   13.0473    6.5830 N   0  0  0  0  0  0  0  0  0  0  0  0
   34.2621   13.4123    7.6185 C   0  0  0  0  0  0  0  0  0  0  0  0
   34.1681   12.9802    8.7690 O   0  0  0  0  0  0  0  0  0  0  0  0
   35.2281   14.5536    7.2253 C   0  0  0  0  0  0  0  0  0  0  0  0
   35.8648   14.5846    5.9546 O   0  0  0  0  0  0  0  0  0  0  0  0
   34.9914   14.4388    4.8582 C   0  0  0  0  0  0  0  0  0  0  0  0
   35.3804   14.9043    3.4540 C   0  0  0  0  0  0  0  0  0  0  0  0
   36.3932   15.5645    3.2389 O   0  0  0  0  0  0  0  0  0  0  0  0
   34.4894   14.5222    2.4303 N   0  0  0  0  0  0  0  0  0  0  0  0
   34.8888   14.8251    1.0679 C   0  0  0  0  0  0  0  0  0  0  0  0
   33.4774   13.4857    2.5847 C   0  0  0  0  0  0  0  0  0  0  0  0
   31.3166   12.3008    7.4275 C   0  0  0  0  0  0  0  0  0  0  0  0
   30.5342   11.2763    7.9062 C   0  0  0  0  0  0  0  0  0  0  0  0
   29.3964   11.6948    8.5124 O   0  0  0  0  0  0  0  0  0  0  0  0
   30.7330    7.8806    8.3186 H   0  0  0  0  0  0  0  0  0  0  0  0
   29.1993    8.6659    7.9527 H   0  0  0  0  0  0  0  0  0  0  0  0
   30.0578    8.9960    9.4866 H   0  0  0  0  0  0  0  0  0  0  0  0
   32.3083    8.6121    6.7936 H   0  0  0  0  0  0  0  0  0  0  0  0
   34.3301    9.3068    5.7114 H   0  0  0  0  0  0  0  0  0  0  0  0
   34.8441   10.9966    5.6990 H   0  0  0  0  0  0  0  0  0  0  0  0
   33.6512   10.4267    4.5187 H   0  0  0  0  0  0  0  0  0  0  0  0
   32.9164   13.8885    6.2909 H   0  0  0  0  0  0  0  0  0  0  0  0
   36.0297   14.5334    7.9706 H   0  0  0  0  0  0  0  0  0  0  0  0
   34.6934   15.4943    7.3600 H   0  0  0  0  0  0  0  0  0  0  0  0
   34.8307   13.3631    4.7521 H   0  0  0  0  0  0  0  0  0  0  0  0
   34.0617   14.9765    5.0625 H   0  0  0  0  0  0  0  0  0  0  0  0
   35.5238   15.7142    1.0228 H   0  0  0  0  0  0  0  0  0  0  0  0
   35.4429   13.9713    0.6664 H   0  0  0  0  0  0  0  0  0  0  0  0
   33.9973   15.0056    0.4603 H   0  0  0  0  0  0  0  0  0  0  0  0
   32.7247   13.5860    1.7972 H   0  0  0  0  0  0  0  0  0  0  0  0
   32.9700   13.5692    3.5481 H   0  0  0  0  0  0  0  0  0  0  0  0
   33.9618   12.5078    2.5116 H   0  0  0  0  0  0  0  0  0  0  0  0
   31.0300   13.3263    7.6351 H   0  0  0  0  0  0  0  0  0  0  0  0
   29.4257   11.3780    9.4408 H   0  0  0  0  0  0  0  0  0  0  0  0
  1  2  1  0
  2  3  2  0
  3  4  1  0
  4  5  1  0
  4  6  2  0
  6  7  1  0
  7  8  1  0
  8  9  2  0
  8 10  1  0
 10 11  1  0
 11 12  1  0
 12 13  1  0
 13 14  2  0
 13 15  1  0
 15 16  1  0
 15 17  1  0
  6 18  1  0
 18 19  2  0
 19 20  1  0
 19  2  1  0
  1 21  1  0
  1 22  1  0
  1 23  1  0
  3 24  1  0
  5 25  1  0
  5 26  1  0
  5 27  1  0
  7 28  1  0
 10 29  1  0
 10 30  1  0
 12 31  1  0
 12 32  1  0
 16 33  1  0
 16 34  1  0
 16 35  1  0
 17 36  1  0
 17 37  1  0
 17 38  1  0
 18 39  1  0
 20 40  1  0
M  END
