LIG
     RDKit          3D

 37 37  0  0  0  0  0  0  0  0999 V2000
    0.5490   -4.5688    1.3244 C   0  0  0  0  0  0  0  0  0  0  0  0
    0.1362   -3.1296    1.1407 C   0  0  0  0  0  0  0  0  0  0  0  0
    0.4355   -2.2786    1.9708 O   0  0  0  0  0  0  0  0  0  0  0  0
   -0.6159   -2.9343   -0.0043 N   0  0  0  0  0  0  0  0  0  0  0  0
   -1.2247   -1.7227   -0.4258 C   0  0  0  0  0  0  0  0  0  0  0  0
   -2.4680   -1.8970   -1.0555 C   0  0  0  0  0  0  0  0  0  0  0  0
   -3.2377   -0.8058   -1.4361 C   0  0  0  0  0  0  0  0  0  0  0  0
   -2.7767    0.4825   -1.1939 C   0  0  0  0  0  0  0  0  0  0  0  0
   -1.5205    0.6997   -0.6180 C   0  0  0  0  0  0  0  0  0  0  0  0
   -1.0458    2.0121   -0.3701 N   0  0  0  0  0  0  0  0  0  0  0  0
   -1.6720    3.2218   -0.6048 C   0  0  0  0  0  0  0  0  0  0  0  0
   -0.7978    4.3886   -0.2165 C   0  0  0  0  0  0  0  0  0  0  0  0
   -2.7947    3.4011   -1.0635 O   0  0  0  0  0  0  0  0  0  0  0  0
   -0.6954   -0.4155   -0.2768 C   0  0  0  0  0  0  0  0  0  0  0  0
    0.7215   -0.1862    0.2155 C   0  0  0  0  0  0  0  0  0  0  0  0
    1.4736    0.7836   -0.6030 N   0  0  0  0  0  0  0  0  0  0  0  0
    2.6123    1.7534    0.1309 S   0  0  0  0  0  0  0  0  0  0  0  0
    3.6962    0.5935    0.9441 C   0  0  0  0  0  0  0  0  0  0  0  0
    1.9003    2.5299    1.1208 O   0  0  0  0  0  0  0  0  0  0  0  0
    3.3386    2.3874   -0.9451 O   0  0  0  0  0  0  0  0  0  0  0  0
   -0.1841   -5.0755    1.9573 H   0  0  0  0  0  0  0  0  0  0  0  0
    0.6206   -5.0872    0.3640 H   0  0  0  0  0  0  0  0  0  0  0  0
    1.5327   -4.6030    1.8011 H   0  0  0  0  0  0  0  0  0  0  0  0
   -1.0492   -3.7777   -0.3642 H   0  0  0  0  0  0  0  0  0  0  0  0
   -2.8816   -2.8897   -1.2185 H   0  0  0  0  0  0  0  0  0  0  0  0
   -4.2111   -0.9523   -1.8973 H   0  0  0  0  0  0  0  0  0  0  0  0
   -3.4243    1.3051   -1.4808 H   0  0  0  0  0  0  0  0  0  0  0  0
   -0.1037    2.0791    0.0067 H   0  0  0  0  0  0  0  0  0  0  0  0
   -0.6016    4.3631    0.8588 H   0  0  0  0  0  0  0  0  0  0  0  0
    0.1451    4.3497   -0.7693 H   0  0  0  0  0  0  0  0  0  0  0  0
   -1.3065    5.3257   -0.4599 H   0  0  0  0  0  0  0  0  0  0  0  0
    0.6719    0.1370    1.2604 H   0  0  0  0  0  0  0  0  0  0  0  0
    1.3135   -1.1013    0.1401 H   0  0  0  0  0  0  0  0  0  0  0  0
    1.7136    0.4842   -1.5484 H   0  0  0  0  0  0  0  0  0  0  0  0
    3.1452    0.0677    1.7250 H   0  0  0  0  0  0  0  0  0  0  0  0
    4.5155    1.1613    1.3908 H   0  0  0  0  0  0  0  0  0  0  0  0
    4.0903   -0.1012    0.2001 H   0  0  0  0  0  0  0  0  0  0  0  0
  1  2  1  0
  2  3  2  0
  2  4  1  0
  4  5  1  0
  5  6  2  0
  6  7  1  0
  7  8  2  0
  8  9  1  0
  9 10  1  0
 10 11  1  0
 11 12  1  0
 11 13  2  0
  9 14  2  0
 14 15  1  0
 15 16  1  0
 16 17  1  0
 17 18  1  0
 17 19  2  0
 17 20  2  0
 14  5  1  0
  1 21  1  0
  1 22  1  0
  1 23  1  0
  4 24  1  0
  6 25  1  0
  7 26  1  0
  8 27  1  0
 10 28  1  0
 12 29  1  0
 12 30  1  0
 12 31  1  0
 15 32  1  0
 15 33  1  0
 16 34  1  0
 18 35  1  0
 18 36  1  0
 18 37  1  0
M  END
