LIG
     RDKit          3D

 33 33  0  0  0  0  0  0  0  0999 V2000
   30.7969   15.6566   11.3586 C   0  0  0  0  0  0  0  0  0  0  0  0
   29.8029   14.9571   10.5601 N   0  0  0  0  0  0  0  0  0  0  0  0
   28.5555   14.6572   11.2053 C   0  0  0  0  0  0  0  0  0  0  0  0
   30.3069   14.0602    9.6247 C   0  0  0  0  0  0  0  0  0  0  0  0
   31.5265   13.9539    9.5105 O   0  0  0  0  0  0  0  0  0  0  0  0
   29.3136   13.3147    8.6890 C   0  0  0  0  0  0  0  0  0  0  0  0
   29.4945   11.9336    8.4207 O   0  0  0  0  0  0  0  0  0  0  0  0
   30.5883   11.5242    7.7311 C   0  0  0  0  0  0  0  0  0  0  0  0
   30.7976   10.1579    7.5848 C   0  0  0  0  0  0  0  0  0  0  0  0
   31.8058    9.6098    6.8554 N   0  0  0  0  0  0  0  0  0  0  0  0
   32.7302   10.4585    6.3650 C   0  0  0  0  0  0  0  0  0  0  0  0
   32.6715   11.8207    6.5840 C   0  0  0  0  0  0  0  0  0  0  0  0
   33.7686   12.6663    6.3635 N   0  0  0  0  0  0  0  0  0  0  0  0
   34.3148   13.3375    7.4586 C   0  0  0  0  0  0  0  0  0  0  0  0
   34.0201   13.0913    8.6315 O   0  0  0  0  0  0  0  0  0  0  0  0
   35.3438   14.3985    7.1492 C   0  0  0  0  0  0  0  0  0  0  0  0
   35.6702   14.6239    5.3844 S   0  0  0  0  0  0  0  0  0  0  0  0
   31.5341   12.3577    7.1728 C   0  0  0  0  0  0  0  0  0  0  0  0
   31.6457   15.9755   10.7482 H   0  0  0  0  0  0  0  0  0  0  0  0
   30.3706   16.5382   11.8362 H   0  0  0  0  0  0  0  0  0  0  0  0
   31.1509   14.9809   12.1273 H   0  0  0  0  0  0  0  0  0  0  0  0
   27.7411   14.9374   10.5349 H   0  0  0  0  0  0  0  0  0  0  0  0
   28.4890   15.1978   12.1499 H   0  0  0  0  0  0  0  0  0  0  0  0
   28.4664   13.5987   11.4280 H   0  0  0  0  0  0  0  0  0  0  0  0
   28.3006   13.3956    9.0873 H   0  0  0  0  0  0  0  0  0  0  0  0
   29.2759   13.8751    7.7450 H   0  0  0  0  0  0  0  0  0  0  0  0
   30.1146    9.4358    8.0274 H   0  0  0  0  0  0  0  0  0  0  0  0
   33.5758    9.9855    5.8772 H   0  0  0  0  0  0  0  0  0  0  0  0
   34.4918   12.3655    5.7166 H   0  0  0  0  0  0  0  0  0  0  0  0
   34.9767   15.3392    7.5592 H   0  0  0  0  0  0  0  0  0  0  0  0
   36.2749   14.1211    7.6497 H   0  0  0  0  0  0  0  0  0  0  0  0
   35.6261   15.9733    5.3918 H   0  0  0  0  0  0  0  0  0  0  0  0
   31.4719   13.4337    7.2511 H   0  0  0  0  0  0  0  0  0  0  0  0
  1  2  1  0
  2  3  1  0
  2  4  1  0
  4  5  2  0
  4  6  1  0
  6  7  1  0
  7  8  1  0
  8  9  2  0
  9 10  1  0
 10 11  2  0
 11 12  1  0
 12 13  1  0
 13 14  1  0
 14 15  2  0
 14 16  1  0
 16 17  1  0
 12 18  2  0
 18  8  1  0
  1 19  1  0
  1 20  1  0
  1 21  1  0
  3 22  1  0
  3 23  1  0
  3 24  1  0
  6 25  1  0
  6 26  1  0
  9 27  1  0
 11 28  1  0
 13 29  1  0
 16 30  1  0
 16 31  1  0
 17 32  1  0
 18 33  1  0
M  END
