LIG
     RDKit          3D

 37 37  0  0  0  0  0  0  0  0999 V2000
   33.9212    9.8964    4.9753 C   0  0  0  0  0  0  0  0  0  0  0  0
   32.8982   10.3388    5.9708 C   0  0  0  0  0  0  0  0  0  0  0  0
   32.1078    9.3954    6.6303 C   0  0  0  0  0  0  0  0  0  0  0  0
   31.0880    9.7891    7.4929 C   0  0  0  0  0  0  0  0  0  0  0  0
   30.8176   11.1382    7.6656 C   0  0  0  0  0  0  0  0  0  0  0  0
   29.7365   11.4310    8.4205 O   0  0  0  0  0  0  0  0  0  0  0  0
   29.3016   12.7718    8.4478 C   0  0  0  0  0  0  0  0  0  0  0  0
   30.0321   13.7151    9.4155 C   0  0  0  0  0  0  0  0  0  0  0  0
   31.2451   13.7185    9.6080 O   0  0  0  0  0  0  0  0  0  0  0  0
   29.2069   14.5966   10.1021 N   0  0  0  0  0  0  0  0  0  0  0  0
   29.8307   15.2168   11.2592 C   0  0  0  0  0  0  0  0  0  0  0  0
   28.1653   15.2739    9.3572 C   0  0  0  0  0  0  0  0  0  0  0  0
   31.6608   12.0750    7.1030 C   0  0  0  0  0  0  0  0  0  0  0  0
   32.7504   11.6712    6.3441 C   0  0  0  0  0  0  0  0  0  0  0  0
   33.7519   12.6159    6.0684 N   0  0  0  0  0  0  0  0  0  0  0  0
   34.2496   13.3933    7.1197 C   0  0  0  0  0  0  0  0  0  0  0  0
   33.9208   13.3045    8.3008 O   0  0  0  0  0  0  0  0  0  0  0  0
   35.2569   14.4058    6.6224 C   0  0  0  0  0  0  0  0  0  0  0  0
   35.8323   15.1177    7.6776 O   0  0  0  0  0  0  0  0  0  0  0  0
   33.8042   10.4523    4.0390 H   0  0  0  0  0  0  0  0  0  0  0  0
   33.8204    8.8339    4.7356 H   0  0  0  0  0  0  0  0  0  0  0  0
   34.9320   10.0544    5.3605 H   0  0  0  0  0  0  0  0  0  0  0  0
   32.2917    8.3348    6.4935 H   0  0  0  0  0  0  0  0  0  0  0  0
   30.4759    9.0366    7.9864 H   0  0  0  0  0  0  0  0  0  0  0  0
   28.2568   12.7075    8.7629 H   0  0  0  0  0  0  0  0  0  0  0  0
   29.2821   13.2182    7.4451 H   0  0  0  0  0  0  0  0  0  0  0  0
   30.4701   16.0458   10.9450 H   0  0  0  0  0  0  0  0  0  0  0  0
   29.0611   15.5220   11.9684 H   0  0  0  0  0  0  0  0  0  0  0  0
   30.4609   14.4923   11.7742 H   0  0  0  0  0  0  0  0  0  0  0  0
   28.5837   16.1617    8.8763 H   0  0  0  0  0  0  0  0  0  0  0  0
   27.7566   14.6718    8.5442 H   0  0  0  0  0  0  0  0  0  0  0  0
   27.3386   15.5078   10.0161 H   0  0  0  0  0  0  0  0  0  0  0  0
   31.5489   13.1330    7.2986 H   0  0  0  0  0  0  0  0  0  0  0  0
   34.4723   12.3441    5.4104 H   0  0  0  0  0  0  0  0  0  0  0  0
   34.7696   15.0992    5.9317 H   0  0  0  0  0  0  0  0  0  0  0  0
   36.0567   13.8816    6.0903 H   0  0  0  0  0  0  0  0  0  0  0  0
   35.1893   15.7709    8.0234 H   0  0  0  0  0  0  0  0  0  0  0  0
  1  2  1  0
  2  3  2  0
  3  4  1  0
  4  5  2  0
  5  6  1  0
  6  7  1  0
  7  8  1  0
  8  9  2  0
  8 10  1  0
 10 11  1  0
 10 12  1  0
  5 13  1  0
 13 14  2  0
 14 15  1  0
 15 16  1  0
 16 17  2  0
 16 18  1  0
 18 19  1  0
 14  2  1  0
  1 20  1  0
  1 21  1  0
  1 22  1  0
  3 23  1  0
  4 24  1  0
  7 25  1  0
  7 26  1  0
 11 27  1  0
 11 28  1  0
 11 29  1  0
 12 30  1  0
 12 31  1  0
 12 32  1  0
 13 33  1  0
 15 34  1  0
 18 35  1  0
 18 36  1  0
 19 37  1  0
M  END
