LIG
     RDKit          3D

 41 42  0  0  0  0  0  0  0  0999 V2000
   30.6348    8.2039    8.1989 C   0  0  0  0  0  0  0  0  0  0  0  0
   31.3239    9.3788    7.6166 C   0  0  0  0  0  0  0  0  0  0  0  0
   32.2992    9.3085    6.6160 C   0  0  0  0  0  0  0  0  0  0  0  0
   33.0010   10.4445    6.1863 C   0  0  0  0  0  0  0  0  0  0  0  0
   34.0507   10.2971    5.1235 C   0  0  0  0  0  0  0  0  0  0  0  0
   32.7610   11.6473    6.8562 C   0  0  0  0  0  0  0  0  0  0  0  0
   33.6044   12.7549    6.6521 N   0  0  0  0  0  0  0  0  0  0  0  0
   34.2220   13.3913    7.7265 C   0  0  0  0  0  0  0  0  0  0  0  0
   34.0547   13.0974    8.9121 O   0  0  0  0  0  0  0  0  0  0  0  0
   35.1618   14.5172    7.3475 C   0  0  0  0  0  0  0  0  0  0  0  0
   35.4948   14.6242    5.5665 S   0  0  0  0  0  0  0  0  0  0  0  0
   31.7273   11.7041    7.7952 C   0  0  0  0  0  0  0  0  0  0  0  0
   31.3935   12.8273    8.4770 O   0  0  0  0  0  0  0  0  0  0  0  0
   30.4410   13.5594    7.7623 C   0  0  0  0  0  0  0  0  0  0  0  0
   29.1749   12.8637    7.2476 C   0  0  0  0  0  0  0  0  0  0  0  0
   28.1845   13.9915    7.2467 C   0  0  0  0  0  0  0  0  0  0  0  0
   28.5090   14.6321    8.4842 N   0  0  0  0  0  0  0  0  0  0  0  0
   27.7327   15.6798    9.0202 C   0  0  0  0  0  0  0  0  0  0  0  0
   29.8809   14.5864    8.7266 C   0  0  0  0  0  0  0  0  0  0  0  0
   30.4944   15.2757    9.5298 O   0  0  0  0  0  0  0  0  0  0  0  0
   31.0154   10.5890    8.1715 C   0  0  0  0  0  0  0  0  0  0  0  0
   30.9251    8.0701    9.2451 H   0  0  0  0  0  0  0  0  0  0  0  0
   29.5474    8.3017    8.1414 H   0  0  0  0  0  0  0  0  0  0  0  0
   30.9452    7.3403    7.6333 H   0  0  0  0  0  0  0  0  0  0  0  0
   32.5700    8.3395    6.2116 H   0  0  0  0  0  0  0  0  0  0  0  0
   34.1019    9.2705    4.7453 H   0  0  0  0  0  0  0  0  0  0  0  0
   33.8118   10.9457    4.2742 H   0  0  0  0  0  0  0  0  0  0  0  0
   35.0403   10.5595    5.5049 H   0  0  0  0  0  0  0  0  0  0  0  0
   34.2106   12.7426    5.8367 H   0  0  0  0  0  0  0  0  0  0  0  0
   34.7066   15.4477    7.6790 H   0  0  0  0  0  0  0  0  0  0  0  0
   36.1065   14.3656    7.8751 H   0  0  0  0  0  0  0  0  0  0  0  0
   35.6711   15.9619    5.5290 H   0  0  0  0  0  0  0  0  0  0  0  0
   30.9328   14.0323    6.9195 H   0  0  0  0  0  0  0  0  0  0  0  0
   29.3085   12.4238    6.2557 H   0  0  0  0  0  0  0  0  0  0  0  0
   28.8376   12.0788    7.9283 H   0  0  0  0  0  0  0  0  0  0  0  0
   28.3603   14.6862    6.4200 H   0  0  0  0  0  0  0  0  0  0  0  0
   27.1534   13.6383    7.2343 H   0  0  0  0  0  0  0  0  0  0  0  0
   27.7427   15.5293   10.0957 H   0  0  0  0  0  0  0  0  0  0  0  0
   26.7122   15.5918    8.6677 H   0  0  0  0  0  0  0  0  0  0  0  0
   28.1774   16.6275    8.7191 H   0  0  0  0  0  0  0  0  0  0  0  0
   30.2686   10.6526    8.9553 H   0  0  0  0  0  0  0  0  0  0  0  0
  1  2  1  0
  2  3  2  0
  3  4  1  0
  4  5  1  0
  4  6  2  0
  6  7  1  0
  7  8  1  0
  8  9  2  0
  8 10  1  0
 10 11  1  0
  6 12  1  0
 12 13  1  0
 13 14  1  0
 14 15  1  0
 15 16  1  0
 16 17  1  0
 17 18  1  0
 17 19  1  0
 19 20  2  0
 12 21  2  0
 21  2  1  0
 19 14  1  0
  1 22  1  0
  1 23  1  0
  1 24  1  0
  3 25  1  0
  5 26  1  0
  5 27  1  0
  5 28  1  0
  7 29  1  0
 10 30  1  0
 10 31  1  0
 11 32  1  0
 14 33  1  0
 15 34  1  0
 15 35  1  0
 16 36  1  0
 16 37  1  0
 18 38  1  0
 18 39  1  0
 18 40  1  0
 21 41  1  0
M  END
