LIG
     RDKit          3D

 38 39  0  0  0  0  0  0  0  0999 V2000
   35.1172    8.5922    3.8691 C   0  0  0  0  0  0  0  0  0  0  0  0
   35.2902   10.0463    4.1538 C   0  0  0  0  0  0  0  0  0  0  0  0
   36.2597   10.6824    3.7350 O   0  0  0  0  0  0  0  0  0  0  0  0
   34.3559   10.7222    4.8463 N   0  0  0  0  0  0  0  0  0  0  0  0
   33.3158   10.3517    5.6908 C   0  0  0  0  0  0  0  0  0  0  0  0
   33.0485    9.1211    6.2517 C   0  0  0  0  0  0  0  0  0  0  0  0
   32.0369    8.9709    7.2069 C   0  0  0  0  0  0  0  0  0  0  0  0
   31.3575   10.0858    7.6659 C   0  0  0  0  0  0  0  0  0  0  0  0
   31.6497   11.3148    7.1113 C   0  0  0  0  0  0  0  0  0  0  0  0
   31.0731   12.4139    7.6394 O   0  0  0  0  0  0  0  0  0  0  0  0
   31.7434   13.6191    7.3236 C   0  0  0  0  0  0  0  0  0  0  0  0
   33.1942   13.7624    7.8168 C   0  0  0  0  0  0  0  0  0  0  0  0
   33.3638   13.6787    9.0372 O   0  0  0  0  0  0  0  0  0  0  0  0
   34.2639   13.9287    6.9324 N   0  0  0  0  0  0  0  0  0  0  0  0
   35.5783   14.0371    7.5674 C   0  0  0  0  0  0  0  0  0  0  0  0
   36.6779   13.6354    6.5880 C   0  0  0  0  0  0  0  0  0  0  0  0
   36.6909   14.5367    5.4733 O   0  0  0  0  0  0  0  0  0  0  0  0
   35.4639   14.4208    4.7474 C   0  0  0  0  0  0  0  0  0  0  0  0
   34.2301   14.6333    5.6433 C   0  0  0  0  0  0  0  0  0  0  0  0
   32.5357   11.4095    6.0641 C   0  0  0  0  0  0  0  0  0  0  0  0
   34.0734    8.3524    3.6616 H   0  0  0  0  0  0  0  0  0  0  0  0
   35.5003    8.0012    4.7028 H   0  0  0  0  0  0  0  0  0  0  0  0
   35.6912    8.3360    2.9729 H   0  0  0  0  0  0  0  0  0  0  0  0
   34.6004   11.7023    4.8624 H   0  0  0  0  0  0  0  0  0  0  0  0
   33.6724    8.2773    6.0202 H   0  0  0  0  0  0  0  0  0  0  0  0
   31.8328    8.0013    7.6529 H   0  0  0  0  0  0  0  0  0  0  0  0
   30.6311    9.9949    8.4700 H   0  0  0  0  0  0  0  0  0  0  0  0
   31.1794   14.3568    7.9022 H   0  0  0  0  0  0  0  0  0  0  0  0
   31.6068   13.8640    6.2692 H   0  0  0  0  0  0  0  0  0  0  0  0
   35.6311   13.4245    8.4705 H   0  0  0  0  0  0  0  0  0  0  0  0
   35.6950   15.0798    7.8754 H   0  0  0  0  0  0  0  0  0  0  0  0
   37.6591   13.6608    7.0693 H   0  0  0  0  0  0  0  0  0  0  0  0
   36.5348   12.6175    6.2099 H   0  0  0  0  0  0  0  0  0  0  0  0
   35.4735   15.1706    3.9496 H   0  0  0  0  0  0  0  0  0  0  0  0
   35.4375   13.4424    4.2620 H   0  0  0  0  0  0  0  0  0  0  0  0
   33.3081   14.4284    5.0979 H   0  0  0  0  0  0  0  0  0  0  0  0
   34.2374   15.6775    5.9283 H   0  0  0  0  0  0  0  0  0  0  0  0
   32.6773   12.3304    5.5213 H   0  0  0  0  0  0  0  0  0  0  0  0
  1  2  1  0
  2  3  2  0
  2  4  1  0
  4  5  1  0
  5  6  2  0
  6  7  1  0
  7  8  2  0
  8  9  1  0
  9 10  1  0
 10 11  1  0
 11 12  1  0
 12 13  2  0
 12 14  1  0
 14 15  1  0
 15 16  1  0
 16 17  1  0
 17 18  1  0
 18 19  1  0
  9 20  2  0
 20  5  1  0
 19 14  1  0
  1 21  1  0
  1 22  1  0
  1 23  1  0
  4 24  1  0
  6 25  1  0
  7 26  1  0
  8 27  1  0
 11 28  1  0
 11 29  1  0
 15 30  1  0
 15 31  1  0
 16 32  1  0
 16 33  1  0
 18 34  1  0
 18 35  1  0
 19 36  1  0
 19 37  1  0
 20 38  1  0
M  END
