LIG
     RDKit          3D

 38 39  0  0  0  0  0  0  0  0999 V2000
   31.1860    8.0690    8.4070 C   0  0  0  0  0  0  0  0  0  0  0  0
   31.7660    9.0980    7.4680 C   0  0  0  0  0  0  0  0  0  0  0  0
   32.7340    8.7720    6.5300 C   0  0  0  0  0  0  0  0  0  0  0  0
   33.2630    9.6380    5.6520 C   0  0  0  0  0  0  0  0  0  0  0  0
   32.8210   10.9050    5.6820 C   0  0  0  0  0  0  0  0  0  0  0  0
   33.3300   11.7430    4.6780 N   0  0  0  0  0  0  0  0  0  0  0  0
   33.5900   13.0680    4.7540 C   0  0  0  0  0  0  0  0  0  0  0  0
   33.4420   13.7460    5.7670 O   0  0  0  0  0  0  0  0  0  0  0  0
   34.1200   13.7080    3.4770 C   0  0  0  0  0  0  0  0  0  0  0  0
   33.0230   14.1560    2.5380 C   0  0  0  0  0  0  0  0  0  0  0  0
   33.7650   14.2490    1.2210 C   0  0  0  0  0  0  0  0  0  0  0  0
   34.7960   13.1450    1.3220 C   0  0  0  0  0  0  0  0  0  0  0  0
   34.9020   12.7780    2.7050 O   0  0  0  0  0  0  0  0  0  0  0  0
   31.8610   11.3420    6.6030 C   0  0  0  0  0  0  0  0  0  0  0  0
   31.3460   10.4150    7.4890 C   0  0  0  0  0  0  0  0  0  0  0  0
   30.3770   11.5810    8.3040 N   0  0  0  0  0  0  0  0  0  0  0  0
   29.7090   12.5130    7.5840 C   0  0  0  0  0  0  0  0  0  0  0  0
   29.9180   12.6920    6.3980 O   0  0  0  0  0  0  0  0  0  0  0  0
   28.7130   13.3600    8.3510 C   0  0  0  0  0  0  0  0  0  0  0  0
   28.5830   14.6820    7.7450 C   0  0  0  0  0  0  0  0  0  0  0  0
   28.5580   15.7160    7.2730 N   0  0  0  0  0  0  0  0  0  0  0  0
   30.2303    8.4197    8.8084 H   0  0  0  0  0  0  0  0  0  0  0  0
   30.2122    7.7087    8.0597 H   0  0  0  0  0  0  0  0  0  0  0  0
   31.0420    7.1181    7.8848 H   0  0  0  0  0  0  0  0  0  0  0  0
   33.1045    7.7118    6.5018 H   0  0  0  0  0  0  0  0  0  0  0  0
   34.0229    9.2955    4.9562 H   0  0  0  0  0  0  0  0  0  0  0  0
   33.5892   11.3017    3.7958 H   0  0  0  0  0  0  0  0  0  0  0  0
   33.1585   12.2306    3.0328 H   0  0  0  0  0  0  0  0  0  0  0  0
   32.6368   15.1424    2.8123 H   0  0  0  0  0  0  0  0  0  0  0  0
   32.1819   13.4622    2.5034 H   0  0  0  0  0  0  0  0  0  0  0  0
   33.0703   14.0392    0.3932 H   0  0  0  0  0  0  0  0  0  0  0  0
   34.2121   15.2356    1.0407 H   0  0  0  0  0  0  0  0  0  0  0  0
   35.7852   13.4937    0.9898 H   0  0  0  0  0  0  0  0  0  0  0  0
   34.5285   12.2621    0.7259 H   0  0  0  0  0  0  0  0  0  0  0  0
   31.5582   12.3600    6.5906 H   0  0  0  0  0  0  0  0  0  0  0  0
   30.4642   11.4716    9.2141 H   0  0  0  0  0  0  0  0  0  0  0  0
   27.7469   12.8433    8.3568 H   0  0  0  0  0  0  0  0  0  0  0  0
   29.0434   13.4348    9.3929 H   0  0  0  0  0  0  0  0  0  0  0  0
  1  2  1  0
  2  3  4  0
  3  4  4  0
  4  5  4  0
  5  6  1  0
  6  7  1  0
  7  8  2  0
  7  9  1  0
  9 10  1  0
 10 11  1  0
 11 12  1  0
 12 13  1  0
  5 14  4  0
 14 15  4  0
 15 16  1  0
 16 17  1  0
 17 18  2  0
 17 19  1  0
 19 20  1  0
 20 21  3  0
 15  2  4  0
 13  9  1  0
  1 22  1  0
  1 23  1  0
  1 24  1  0
  3 25  1  0
  4 26  1  0
  6 27  1  0
  9 28  1  0
 10 29  1  0
 10 30  1  0
 11 31  1  0
 11 32  1  0
 12 33  1  0
 12 34  1  0
 14 35  1  0
 16 36  1  0
 19 37  1  0
 19 38  1  0
M  END
