LIG
     RDKit          3D

 38 39  0  0  0  0  0  0  0  0999 V2000
   31.1860    8.0690    8.4070 C   0  0  0  0  0  0  0  0  0  0  0  0
   31.7660    9.0980    7.4680 C   0  0  0  0  0  0  0  0  0  0  0  0
   32.7340    8.7720    6.5300 C   0  0  0  0  0  0  0  0  0  0  0  0
   33.2630    9.6380    5.6520 C   0  0  0  0  0  0  0  0  0  0  0  0
   32.8210   10.9050    5.6820 C   0  0  0  0  0  0  0  0  0  0  0  0
   33.3300   11.7430    4.6780 N   0  0  0  0  0  0  0  0  0  0  0  0
   33.5900   13.0680    4.7540 C   0  0  0  0  0  0  0  0  0  0  0  0
   33.4420   13.7460    5.7670 O   0  0  0  0  0  0  0  0  0  0  0  0
   34.1200   13.7080    3.4770 C   0  0  0  0  0  0  0  0  0  0  0  0
   33.0230   14.1560    2.5380 C   0  0  0  0  0  0  0  0  0  0  0  0
   33.7650   14.2490    1.2210 C   0  0  0  0  0  0  0  0  0  0  0  0
   34.7960   13.1450    1.3220 C   0  0  0  0  0  0  0  0  0  0  0  0
   34.9020   12.7780    2.7050 O   0  0  0  0  0  0  0  0  0  0  0  0
   31.8610   11.3420    6.6030 C   0  0  0  0  0  0  0  0  0  0  0  0
   31.3460   10.4150    7.4890 C   0  0  0  0  0  0  0  0  0  0  0  0
   30.3770   11.5810    8.3040 N   0  0  0  0  0  0  0  0  0  0  0  0
   29.7090   12.5130    7.5840 C   0  0  0  0  0  0  0  0  0  0  0  0
   29.9180   12.6920    6.3980 O   0  0  0  0  0  0  0  0  0  0  0  0
   28.7130   13.3600    8.3510 C   0  0  0  0  0  0  0  0  0  0  0  0
   28.5830   14.6820    7.7450 C   0  0  0  0  0  0  0  0  0  0  0  0
   28.5580   15.7160    7.2730 N   0  0  0  0  0  0  0  0  0  0  0  0
   31.5702    8.2175    9.4204 H   0  0  0  0  0  0  0  0  0  0  0  0
   30.6501    8.5628    9.2230 H   0  0  0  0  0  0  0  0  0  0  0  0
   30.0954    8.1442    8.4641 H   0  0  0  0  0  0  0  0  0  0  0  0
   33.1034    7.7095    6.5038 H   0  0  0  0  0  0  0  0  0  0  0  0
   34.0209    9.3051    4.9495 H   0  0  0  0  0  0  0  0  0  0  0  0
   33.5929   11.3076    3.7987 H   0  0  0  0  0  0  0  0  0  0  0  0
   33.1610   12.2294    3.0325 H   0  0  0  0  0  0  0  0  0  0  0  0
   32.6348   15.1415    2.8119 H   0  0  0  0  0  0  0  0  0  0  0  0
   32.1843   13.4597    2.5035 H   0  0  0  0  0  0  0  0  0  0  0  0
   34.2105   15.2355    1.0402 H   0  0  0  0  0  0  0  0  0  0  0  0
   33.0704   14.0383    0.3938 H   0  0  0  0  0  0  0  0  0  0  0  0
   34.5235   12.2625    0.7284 H   0  0  0  0  0  0  0  0  0  0  0  0
   35.7857   13.4882    0.9873 H   0  0  0  0  0  0  0  0  0  0  0  0
   31.5522   12.3596    6.6037 H   0  0  0  0  0  0  0  0  0  0  0  0
   30.4596   11.4740    9.2106 H   0  0  0  0  0  0  0  0  0  0  0  0
   27.7473   12.8389    8.3587 H   0  0  0  0  0  0  0  0  0  0  0  0
   29.0355   13.4389    9.3981 H   0  0  0  0  0  0  0  0  0  0  0  0
  1  2  1  0
  2  3  4  0
  3  4  4  0
  4  5  4  0
  5  6  1  0
  6  7  1  0
  7  8  2  0
  7  9  1  0
  9 10  1  0
 10 11  1  0
 11 12  1  0
 12 13  1  0
  5 14  4  0
 14 15  4  0
 15 16  1  0
 16 17  1  0
 17 18  2  0
 17 19  1  0
 19 20  1  0
 20 21  3  0
 15  2  4  0
 13  9  1  0
  1 22  1  0
  1 23  1  0
  1 24  1  0
  3 25  1  0
  4 26  1  0
  6 27  1  0
  9 28  1  0
 10 29  1  0
 10 30  1  0
 11 31  1  0
 11 32  1  0
 12 33  1  0
 12 34  1  0
 14 35  1  0
 16 36  1  0
 19 37  1  0
 19 38  1  0
M  END
$$$$
