LIG
     RDKit          3D

 39 40  0  0  0  0  0  0  0  0999 V2000
   28.5952   15.8634    8.2138 N   0  0  0  0  0  0  0  0  0  0  0  0
   28.3490   14.7462    8.0359 C   0  0  0  0  0  0  0  0  0  0  0  0
   27.9361   13.3585    7.9100 C   0  0  0  0  0  0  0  0  0  0  0  0
   28.9809   12.5488    7.2442 C   0  0  0  0  0  0  0  0  0  0  0  0
   29.4305   12.8653    6.1444 O   0  0  0  0  0  0  0  0  0  0  0  0
   29.3889   11.4428    7.9788 N   0  0  0  0  0  0  0  0  0  0  0  0
   30.6968   11.0361    7.7946 C   0  0  0  0  0  0  0  0  0  0  0  0
   31.0702    9.7412    7.4858 C   0  0  0  0  0  0  0  0  0  0  0  0
   32.3013    9.5684    6.8576 C   0  0  0  0  0  0  0  0  0  0  0  0
   33.1723   10.6538    6.7027 C   0  0  0  0  0  0  0  0  0  0  0  0
   32.8500   11.8564    7.3150 C   0  0  0  0  0  0  0  0  0  0  0  0
   33.6577   12.8664    7.6871 O   0  0  0  0  0  0  0  0  0  0  0  0
   34.5633   13.3048    6.7383 C   0  0  0  0  0  0  0  0  0  0  0  0
   34.0147   14.1153    5.5825 C   0  0  0  0  0  0  0  0  0  0  0  0
   32.8171   14.3119    5.3971 O   0  0  0  0  0  0  0  0  0  0  0  0
   35.0309   14.5342    4.7194 N   0  0  0  0  0  0  0  0  0  0  0  0
   36.3302   14.9092    5.2917 C   0  0  0  0  0  0  0  0  0  0  0  0
   37.4119   15.1368    4.2523 C   0  0  0  0  0  0  0  0  0  0  0  0
   36.9633   15.9905    3.2075 O   0  0  0  0  0  0  0  0  0  0  0  0
   35.8301   15.4062    2.5543 C   0  0  0  0  0  0  0  0  0  0  0  0
   34.6529   15.2485    3.5099 C   0  0  0  0  0  0  0  0  0  0  0  0
   31.6104   12.0576    7.8314 C   0  0  0  0  0  0  0  0  0  0  0  0
   27.7332   12.9590    8.9035 H   0  0  0  0  0  0  0  0  0  0  0  0
   27.0418   13.2801    7.2890 H   0  0  0  0  0  0  0  0  0  0  0  0
   28.6913   10.7385    8.2100 H   0  0  0  0  0  0  0  0  0  0  0  0
   30.3815    8.9071    7.5785 H   0  0  0  0  0  0  0  0  0  0  0  0
   32.5925    8.5869    6.4939 H   0  0  0  0  0  0  0  0  0  0  0  0
   34.1343   10.4950    6.2303 H   0  0  0  0  0  0  0  0  0  0  0  0
   35.2282   13.9552    7.3150 H   0  0  0  0  0  0  0  0  0  0  0  0
   35.1665   12.4901    6.3243 H   0  0  0  0  0  0  0  0  0  0  0  0
   36.7061   14.1260    5.9545 H   0  0  0  0  0  0  0  0  0  0  0  0
   36.1727   15.8003    5.8978 H   0  0  0  0  0  0  0  0  0  0  0  0
   37.7305   14.1824    3.8143 H   0  0  0  0  0  0  0  0  0  0  0  0
   38.2988   15.5873    4.7048 H   0  0  0  0  0  0  0  0  0  0  0  0
   36.1218   14.4394    2.1258 H   0  0  0  0  0  0  0  0  0  0  0  0
   35.5492   16.0613    1.7235 H   0  0  0  0  0  0  0  0  0  0  0  0
   33.8284   14.7183    3.0204 H   0  0  0  0  0  0  0  0  0  0  0  0
   34.2855   16.2343    3.7844 H   0  0  0  0  0  0  0  0  0  0  0  0
   31.3550   13.0380    8.2264 H   0  0  0  0  0  0  0  0  0  0  0  0
  1  2  3  0
  2  3  1  0
  3  4  1  0
  4  5  2  0
  4  6  1  0
  6  7  1  0
  7  8  2  0
  8  9  1  0
  9 10  2  0
 10 11  1  0
 11 12  1  0
 12 13  1  0
 13 14  1  0
 14 15  2  0
 14 16  1  0
 16 17  1  0
 17 18  1  0
 18 19  1  0
 19 20  1  0
 20 21  1  0
 11 22  2  0
 22  7  1  0
 21 16  1  0
  3 23  1  0
  3 24  1  0
  6 25  1  0
  8 26  1  0
  9 27  1  0
 10 28  1  0
 13 29  1  0
 13 30  1  0
 17 31  1  0
 17 32  1  0
 18 33  1  0
 18 34  1  0
 20 35  1  0
 20 36  1  0
 21 37  1  0
 21 38  1  0
 22 39  1  0
M  END
