LIG
     RDKit          3D

 40 40  0  0  0  0  0  0  0  0999 V2000
   30.2434    8.8093    8.3571 C   0  0  0  0  0  0  0  0  0  0  0  0
   31.0385    9.8902    7.6922 C   0  0  0  0  0  0  0  0  0  0  0  0
   32.0952    9.5390    6.8318 C   0  0  0  0  0  0  0  0  0  0  0  0
   32.9365   10.5046    6.2593 C   0  0  0  0  0  0  0  0  0  0  0  0
   34.0221   10.0793    5.3154 C   0  0  0  0  0  0  0  0  0  0  0  0
   32.7413   11.8333    6.6408 C   0  0  0  0  0  0  0  0  0  0  0  0
   33.6897   12.8240    6.3644 N   0  0  0  0  0  0  0  0  0  0  0  0
   34.2702   13.5159    7.4252 C   0  0  0  0  0  0  0  0  0  0  0  0
   33.9980   13.3580    8.6169 O   0  0  0  0  0  0  0  0  0  0  0  0
   35.3217   14.5119    6.9632 C   0  0  0  0  0  0  0  0  0  0  0  0
   35.5578   14.4485    5.5553 O   0  0  0  0  0  0  0  0  0  0  0  0
   36.5412   15.3944    5.1356 C   0  0  0  0  0  0  0  0  0  0  0  0
   36.3012   16.0609    3.7681 C   0  0  0  0  0  0  0  0  0  0  0  0
   35.3855   15.6642    3.0413 O   0  0  0  0  0  0  0  0  0  0  0  0
   37.1375   17.1199    3.3884 N   0  0  0  0  0  0  0  0  0  0  0  0
   38.2970   17.5960    4.1098 C   0  0  0  0  0  0  0  0  0  0  0  0
   36.7081   17.9769    2.3050 C   0  0  0  0  0  0  0  0  0  0  0  0
   31.6210   12.2036    7.3823 C   0  0  0  0  0  0  0  0  0  0  0  0
   30.7600   11.2411    7.8685 C   0  0  0  0  0  0  0  0  0  0  0  0
   29.6553   11.7182    8.5002 O   0  0  0  0  0  0  0  0  0  0  0  0
   29.2468    8.7272    7.9250 H   0  0  0  0  0  0  0  0  0  0  0  0
   30.1653    8.9996    9.4314 H   0  0  0  0  0  0  0  0  0  0  0  0
   30.7393    7.8461    8.2456 H   0  0  0  0  0  0  0  0  0  0  0  0
   32.2872    8.4848    6.6386 H   0  0  0  0  0  0  0  0  0  0  0  0
   34.1910    8.9986    5.3599 H   0  0  0  0  0  0  0  0  0  0  0  0
   33.7376   10.3359    4.2900 H   0  0  0  0  0  0  0  0  0  0  0  0
   34.9739   10.5642    5.5457 H   0  0  0  0  0  0  0  0  0  0  0  0
   34.3423   12.6991    5.5954 H   0  0  0  0  0  0  0  0  0  0  0  0
   34.9614   15.5064    7.2291 H   0  0  0  0  0  0  0  0  0  0  0  0
   36.2459   14.2733    7.4970 H   0  0  0  0  0  0  0  0  0  0  0  0
   36.5875   16.1944    5.8608 H   0  0  0  0  0  0  0  0  0  0  0  0
   37.5031   14.8738    5.0962 H   0  0  0  0  0  0  0  0  0  0  0  0
   37.9806   18.3569    4.8255 H   0  0  0  0  0  0  0  0  0  0  0  0
   39.0015   18.0519    3.4061 H   0  0  0  0  0  0  0  0  0  0  0  0
   38.8124   16.7536    4.5706 H   0  0  0  0  0  0  0  0  0  0  0  0
   37.5224   18.0749    1.5807 H   0  0  0  0  0  0  0  0  0  0  0  0
   35.8276   17.5886    1.7868 H   0  0  0  0  0  0  0  0  0  0  0  0
   36.4619   18.9626    2.7124 H   0  0  0  0  0  0  0  0  0  0  0  0
   31.4312   13.2480    7.6121 H   0  0  0  0  0  0  0  0  0  0  0  0
   29.5822   11.2885    9.3766 H   0  0  0  0  0  0  0  0  0  0  0  0
  1  2  1  0
  2  3  2  0
  3  4  1  0
  4  5  1  0
  4  6  2  0
  6  7  1  0
  7  8  1  0
  8  9  2  0
  8 10  1  0
 10 11  1  0
 11 12  1  0
 12 13  1  0
 13 14  2  0
 13 15  1  0
 15 16  1  0
 15 17  1  0
  6 18  1  0
 18 19  2  0
 19 20  1  0
 19  2  1  0
  1 21  1  0
  1 22  1  0
  1 23  1  0
  3 24  1  0
  5 25  1  0
  5 26  1  0
  5 27  1  0
  7 28  1  0
 10 29  1  0
 10 30  1  0
 12 31  1  0
 12 32  1  0
 16 33  1  0
 16 34  1  0
 16 35  1  0
 17 36  1  0
 17 37  1  0
 17 38  1  0
 18 39  1  0
 20 40  1  0
M  END
