LIG
     RDKit          3D

 37 37  0  0  0  0  0  0  0  0999 V2000
   31.0713    9.6400    6.7432 C   0  0  0  0  0  0  0  0  0  0  0  0
   32.0068   10.6446    6.1502 C   0  0  0  0  0  0  0  0  0  0  0  0
   32.9729   10.1260    5.2889 C   0  0  0  0  0  0  0  0  0  0  0  0
   34.0959   10.8825    4.9995 C   0  0  0  0  0  0  0  0  0  0  0  0
   34.2088   12.1669    5.5290 C   0  0  0  0  0  0  0  0  0  0  0  0
   35.5004   12.7283    5.7034 N   0  0  0  0  0  0  0  0  0  0  0  0
   35.8233   13.1953    6.9698 C   0  0  0  0  0  0  0  0  0  0  0  0
   36.3613   12.4304    7.7741 O   0  0  0  0  0  0  0  0  0  0  0  0
   35.5597   14.6414    7.3377 C   0  0  0  0  0  0  0  0  0  0  0  0
   35.3822   15.7704    5.9343 S   0  0  0  0  0  0  0  0  0  0  0  0
   33.1317   12.7844    6.1123 C   0  0  0  0  0  0  0  0  0  0  0  0
   32.0960   11.9950    6.5377 C   0  0  0  0  0  0  0  0  0  0  0  0
   31.2768   12.4651    7.4940 O   0  0  0  0  0  0  0  0  0  0  0  0
   31.2909   13.8350    7.8958 C   0  0  0  0  0  0  0  0  0  0  0  0
   32.2861   14.5633    8.8051 C   0  0  0  0  0  0  0  0  0  0  0  0
   32.9474   13.9113    9.6113 O   0  0  0  0  0  0  0  0  0  0  0  0
   32.4099   15.9551    8.7398 N   0  0  0  0  0  0  0  0  0  0  0  0
   33.2430   16.6542    9.6958 C   0  0  0  0  0  0  0  0  0  0  0  0
   31.8228   16.8443    7.7458 C   0  0  0  0  0  0  0  0  0  0  0  0
   30.6560    9.0067    5.9561 H   0  0  0  0  0  0  0  0  0  0  0  0
   31.6591    9.0010    7.4047 H   0  0  0  0  0  0  0  0  0  0  0  0
   30.2639   10.0988    7.2999 H   0  0  0  0  0  0  0  0  0  0  0  0
   32.9328    9.0877    4.9672 H   0  0  0  0  0  0  0  0  0  0  0  0
   34.9276   10.4126    4.4825 H   0  0  0  0  0  0  0  0  0  0  0  0
   36.1827   12.0125    5.4718 H   0  0  0  0  0  0  0  0  0  0  0  0
   36.4174   14.9922    7.9213 H   0  0  0  0  0  0  0  0  0  0  0  0
   34.6864   14.6937    7.9743 H   0  0  0  0  0  0  0  0  0  0  0  0
   35.2179   16.8783    6.6701 H   0  0  0  0  0  0  0  0  0  0  0  0
   33.2114   13.8163    6.4101 H   0  0  0  0  0  0  0  0  0  0  0  0
   30.4475   13.8387    8.5751 H   0  0  0  0  0  0  0  0  0  0  0  0
   31.0571   14.4272    7.0106 H   0  0  0  0  0  0  0  0  0  0  0  0
   32.6105   17.1526   10.4313 H   0  0  0  0  0  0  0  0  0  0  0  0
   33.8212   17.4251    9.1733 H   0  0  0  0  0  0  0  0  0  0  0  0
   33.9797   15.9969   10.1605 H   0  0  0  0  0  0  0  0  0  0  0  0
   31.2875   16.3495    6.9371 H   0  0  0  0  0  0  0  0  0  0  0  0
   32.6497   17.3687    7.2508 H   0  0  0  0  0  0  0  0  0  0  0  0
   31.2157   17.6134    8.2348 H   0  0  0  0  0  0  0  0  0  0  0  0
  1  2  1  0
  2  3  2  0
  3  4  1  0
  4  5  2  0
  5  6  1  0
  6  7  1  0
  7  8  2  0
  7  9  1  0
  9 10  1  0
  5 11  1  0
 11 12  2  0
 12 13  1  0
 13 14  1  0
 14 15  1  0
 15 16  2  0
 15 17  1  0
 17 18  1  0
 17 19  1  0
 12  2  1  0
  1 20  1  0
  1 21  1  0
  1 22  1  0
  3 23  1  0
  4 24  1  0
  6 25  1  0
  9 26  1  0
  9 27  1  0
 10 28  1  0
 11 29  1  0
 14 30  1  0
 14 31  1  0
 18 32  1  0
 18 33  1  0
 18 34  1  0
 19 35  1  0
 19 36  1  0
 19 37  1  0
M  END
