LIG
     RDKit          3D

 41 41  0  0  0  0  0  0  0  0999 V2000
   -5.8001   -0.2878   -0.8896 C   0  0  0  0  0  0  0  0  0  0  0  0
   -4.5018   -0.9163   -1.3312 C   0  0  0  0  0  0  0  0  0  0  0  0
   -4.4946   -1.8415   -2.1354 O   0  0  0  0  0  0  0  0  0  0  0  0
   -3.4129   -0.3131   -0.7350 N   0  0  0  0  0  0  0  0  0  0  0  0
   -2.0402   -0.6080   -0.8649 C   0  0  0  0  0  0  0  0  0  0  0  0
   -1.6182   -1.6845   -1.6604 C   0  0  0  0  0  0  0  0  0  0  0  0
   -0.2677   -2.0050   -1.8046 C   0  0  0  0  0  0  0  0  0  0  0  0
    0.7036   -1.2463   -1.1653 C   0  0  0  0  0  0  0  0  0  0  0  0
    0.3214   -0.1579   -0.3830 C   0  0  0  0  0  0  0  0  0  0  0  0
    1.2050    0.6777    0.2731 O   0  0  0  0  0  0  0  0  0  0  0  0
    2.5937    0.5541   -0.0134 C   0  0  0  0  0  0  0  0  0  0  0  0
    3.3302   -0.5205    0.8044 C   0  0  0  0  0  0  0  0  0  0  0  0
    2.7506   -1.1446    1.6943 O   0  0  0  0  0  0  0  0  0  0  0  0
    4.6711   -0.7460    0.4952 N   0  0  0  0  0  0  0  0  0  0  0  0
    5.3631   -1.8464    1.1498 C   0  0  0  0  0  0  0  0  0  0  0  0
    5.3896   -0.0993   -0.5928 C   0  0  0  0  0  0  0  0  0  0  0  0
   -1.0564    0.1634   -0.1993 C   0  0  0  0  0  0  0  0  0  0  0  0
   -1.2531    1.2684    0.6809 N   0  0  0  0  0  0  0  0  0  0  0  0
   -2.3766    1.9069    1.1424 C   0  0  0  0  0  0  0  0  0  0  0  0
   -3.5436    1.6529    0.8501 O   0  0  0  0  0  0  0  0  0  0  0  0
   -2.0620    3.0339    2.1338 C   0  0  0  0  0  0  0  0  0  0  0  0
   -3.1636    3.9102    2.3163 O   0  0  0  0  0  0  0  0  0  0  0  0
   -5.8487    0.7467   -1.2400 H   0  0  0  0  0  0  0  0  0  0  0  0
   -6.6408   -0.8448   -1.3135 H   0  0  0  0  0  0  0  0  0  0  0  0
   -5.8794   -0.3168    0.2005 H   0  0  0  0  0  0  0  0  0  0  0  0
   -3.6338    0.4718   -0.1256 H   0  0  0  0  0  0  0  0  0  0  0  0
   -2.3289   -2.3178   -2.1828 H   0  0  0  0  0  0  0  0  0  0  0  0
    0.0184   -2.8578   -2.4157 H   0  0  0  0  0  0  0  0  0  0  0  0
    1.7380   -1.5445   -1.2886 H   0  0  0  0  0  0  0  0  0  0  0  0
    2.7618    0.4212   -1.0873 H   0  0  0  0  0  0  0  0  0  0  0  0
    3.0409    1.5153    0.2638 H   0  0  0  0  0  0  0  0  0  0  0  0
    6.3258   -1.4870    1.5250 H   0  0  0  0  0  0  0  0  0  0  0  0
    5.5301   -2.6393    0.4141 H   0  0  0  0  0  0  0  0  0  0  0  0
    4.7934   -2.2570    1.9877 H   0  0  0  0  0  0  0  0  0  0  0  0
    5.3521   -0.7516   -1.4705 H   0  0  0  0  0  0  0  0  0  0  0  0
    6.4310    0.0567   -0.2962 H   0  0  0  0  0  0  0  0  0  0  0  0
    4.9580    0.8707   -0.8472 H   0  0  0  0  0  0  0  0  0  0  0  0
   -0.3643    1.6095    1.0437 H   0  0  0  0  0  0  0  0  0  0  0  0
   -1.8114    2.5856    3.1002 H   0  0  0  0  0  0  0  0  0  0  0  0
   -1.2145    3.6239    1.7741 H   0  0  0  0  0  0  0  0  0  0  0  0
   -3.9653    3.3649    2.1928 H   0  0  0  0  0  0  0  0  0  0  0  0
  1  2  1  0
  2  3  2  0
  2  4  1  0
  4  5  1  0
  5  6  2  0
  6  7  1  0
  7  8  2  0
  8  9  1  0
  9 10  1  0
 10 11  1  0
 11 12  1  0
 12 13  2  0
 12 14  1  0
 14 15  1  0
 14 16  1  0
  9 17  2  0
 17 18  1  0
 18 19  1  0
 19 20  2  0
 19 21  1  0
 21 22  1  0
 17  5  1  0
  1 23  1  0
  1 24  1  0
  1 25  1  0
  4 26  1  0
  6 27  1  0
  7 28  1  0
  8 29  1  0
 11 30  1  0
 11 31  1  0
 15 32  1  0
 15 33  1  0
 15 34  1  0
 16 35  1  0
 16 36  1  0
 16 37  1  0
 18 38  1  0
 21 39  1  0
 21 40  1  0
 22 41  1  0
M  END
