LIG
     RDKit          3D

 41 41  0  0  0  0  0  0  0  0999 V2000
   28.5340   14.0390    8.5970 C   0  0  0  0  0  0  0  0  0  0  0  0
   29.3000   13.3530    7.8990 C   0  0  0  0  0  0  0  0  0  0  0  0
   29.3990   13.5140    6.5850 O   0  0  0  0  0  0  0  0  0  0  0  0
   31.1650   13.3330    8.0150 N   0  0  0  0  0  0  0  0  0  0  0  0
   31.5450   11.9340    7.6020 C   0  0  0  0  0  0  0  0  0  0  0  0
   30.7220   10.8640    7.9390 C   0  0  0  0  0  0  0  0  0  0  0  0
   31.0170    9.5590    7.5720 C   0  0  0  0  0  0  0  0  0  0  0  0
   32.1560    9.3390    6.8090 C   0  0  0  0  0  0  0  0  0  0  0  0
   33.0110   10.3720    6.4380 C   0  0  0  0  0  0  0  0  0  0  0  0
   34.1980   10.0910    5.5530 O   0  0  0  0  0  0  0  0  0  0  0  0
   35.2234   11.0367    5.5819 C   0  0  0  0  0  0  0  0  0  0  0  0
   35.0445   12.2279    4.6255 C   0  0  0  0  0  0  0  0  0  0  0  0
   34.0544   12.3132    3.8967 O   0  0  0  0  0  0  0  0  0  0  0  0
   36.0431   13.2036    4.6301 N   0  0  0  0  0  0  0  0  0  0  0  0
   37.3579   13.0239    5.2281 C   0  0  0  0  0  0  0  0  0  0  0  0
   35.9243   14.3003    3.6811 C   0  0  0  0  0  0  0  0  0  0  0  0
   32.7080   11.6650    6.8730 C   0  0  0  0  0  0  0  0  0  0  0  0
   33.6520   12.7090    6.6590 N   0  0  0  0  0  0  0  0  0  0  0  0
   34.4250   13.2280    7.6390 C   0  0  0  0  0  0  0  0  0  0  0  0
   34.9120   12.5690    8.5560 O   0  0  0  0  0  0  0  0  0  0  0  0
   34.6680   14.7180    7.5670 C   0  0  0  0  0  0  0  0  0  0  0  0
   35.0470   15.1300    6.2680 O   0  0  0  0  0  0  0  0  0  0  0  0
   28.3952   13.6993    9.6828 H   0  0  0  0  0  0  0  0  0  0  0  0
   27.4492   14.1029    8.2352 H   0  0  0  0  0  0  0  0  0  0  0  0
   27.6367   13.4890    9.0487 H   0  0  0  0  0  0  0  0  0  0  0  0
   31.4503   13.9906    8.2171 H   0  0  0  0  0  0  0  0  0  0  0  0
   29.8105   11.0085    8.5241 H   0  0  0  0  0  0  0  0  0  0  0  0
   30.3872    8.7457    7.8765 H   0  0  0  0  0  0  0  0  0  0  0  0
   32.3604    8.2929    6.5255 H   0  0  0  0  0  0  0  0  0  0  0  0
   35.4519   11.3776    6.5977 H   0  0  0  0  0  0  0  0  0  0  0  0
   36.0972   10.4785    5.2261 H   0  0  0  0  0  0  0  0  0  0  0  0
   37.3459   12.3090    6.0514 H   0  0  0  0  0  0  0  0  0  0  0  0
   38.0424   12.6602    4.4559 H   0  0  0  0  0  0  0  0  0  0  0  0
   37.7135   13.9852    5.6103 H   0  0  0  0  0  0  0  0  0  0  0  0
   36.3302   15.2116    4.1300 H   0  0  0  0  0  0  0  0  0  0  0  0
   36.4933   14.0475    2.7816 H   0  0  0  0  0  0  0  0  0  0  0  0
   34.8828   14.4838    3.4037 H   0  0  0  0  0  0  0  0  0  0  0  0
   33.7230   13.0073    5.7559 H   0  0  0  0  0  0  0  0  0  0  0  0
   33.7588   15.2608    7.8427 H   0  0  0  0  0  0  0  0  0  0  0  0
   35.4731   14.9850    8.2583 H   0  0  0  0  0  0  0  0  0  0  0  0
   35.2889   16.0759    6.3383 H   0  0  0  0  0  0  0  0  0  0  0  0
  1  2  1  0
  2  3  2  0
  2  4  1  0
  4  5  1  0
  5  6  4  0
  6  7  4  0
  7  8  4  0
  8  9  4  0
  9 10  1  0
 10 11  1  0
 11 12  1  0
 12 13  2  0
 12 14  1  0
 14 15  1  0
 14 16  1  0
  9 17  4  0
 17 18  1  0
 18 19  1  0
 19 20  2  0
 19 21  1  0
 21 22  1  0
 17  5  4  0
  1 23  1  0
  1 24  1  0
  1 25  1  0
  4 26  1  0
  6 27  1  0
  7 28  1  0
  8 29  1  0
 11 30  1  0
 11 31  1  0
 15 32  1  0
 15 33  1  0
 15 34  1  0
 16 35  1  0
 16 36  1  0
 16 37  1  0
 18 38  1  0
 21 39  1  0
 21 40  1  0
 22 41  1  0
M  END
