LIG
     RDKit          3D

 41 41  0  0  0  0  0  0  0  0999 V2000
   28.5340   14.0390    8.5970 C   0  0  0  0  0  0  0  0  0  0  0  0
   29.3000   13.3530    7.8990 C   0  0  0  0  0  0  0  0  0  0  0  0
   29.3990   13.5140    6.5850 O   0  0  0  0  0  0  0  0  0  0  0  0
   30.0510   12.3330    8.4300 N   0  0  0  0  0  0  0  0  0  0  0  0
   31.5450   11.9340    7.6020 C   0  0  0  0  0  0  0  0  0  0  0  0
   30.7220   10.8640    7.9390 C   0  0  0  0  0  0  0  0  0  0  0  0
   31.0170    9.5590    7.5720 C   0  0  0  0  0  0  0  0  0  0  0  0
   32.1560    9.3390    6.8090 C   0  0  0  0  0  0  0  0  0  0  0  0
   33.0110   10.3720    6.4380 C   0  0  0  0  0  0  0  0  0  0  0  0
   34.1980   10.0910    5.5530 O   0  0  0  0  0  0  0  0  0  0  0  0
   34.5895    8.7535    5.4845 C   0  0  0  0  0  0  0  0  0  0  0  0
   33.9560    7.9490    4.3357 C   0  0  0  0  0  0  0  0  0  0  0  0
   33.1462    8.4679    3.5650 O   0  0  0  0  0  0  0  0  0  0  0  0
   34.3389    6.6115    4.2140 N   0  0  0  0  0  0  0  0  0  0  0  0
   33.6484    5.7837    3.2368 C   0  0  0  0  0  0  0  0  0  0  0  0
   35.1487    5.9031    5.1949 C   0  0  0  0  0  0  0  0  0  0  0  0
   32.7080   11.6650    6.8730 C   0  0  0  0  0  0  0  0  0  0  0  0
   33.6520   12.7090    6.6590 N   0  0  0  0  0  0  0  0  0  0  0  0
   34.4250   13.2280    7.6390 C   0  0  0  0  0  0  0  0  0  0  0  0
   34.9120   12.5690    8.5560 O   0  0  0  0  0  0  0  0  0  0  0  0
   34.6680   14.7180    7.5670 C   0  0  0  0  0  0  0  0  0  0  0  0
   35.0470   15.1300    6.2680 O   0  0  0  0  0  0  0  0  0  0  0  0
   27.5055   13.5814    8.8103 H   0  0  0  0  0  0  0  0  0  0  0  0
   27.5429   14.3452    8.1113 H   0  0  0  0  0  0  0  0  0  0  0  0
   28.2494   15.0639    8.1735 H   0  0  0  0  0  0  0  0  0  0  0  0
   29.9285   11.8020    9.1267 H   0  0  0  0  0  0  0  0  0  0  0  0
   29.7949   11.0134    8.4982 H   0  0  0  0  0  0  0  0  0  0  0  0
   30.3781    8.7469    7.8612 H   0  0  0  0  0  0  0  0  0  0  0  0
   32.3417    8.3010    6.4833 H   0  0  0  0  0  0  0  0  0  0  0  0
   35.6637    8.8094    5.2725 H   0  0  0  0  0  0  0  0  0  0  0  0
   34.4748    8.2260    6.4389 H   0  0  0  0  0  0  0  0  0  0  0  0
   33.1636    6.3827    2.4604 H   0  0  0  0  0  0  0  0  0  0  0  0
   32.8860    5.1957    3.7552 H   0  0  0  0  0  0  0  0  0  0  0  0
   34.3700    5.1144    2.7599 H   0  0  0  0  0  0  0  0  0  0  0  0
   35.7017    5.0992    4.7011 H   0  0  0  0  0  0  0  0  0  0  0  0
   35.8702    6.5657    5.6755 H   0  0  0  0  0  0  0  0  0  0  0  0
   34.4843    5.4822    5.9542 H   0  0  0  0  0  0  0  0  0  0  0  0
   33.7062   13.0644    5.7769 H   0  0  0  0  0  0  0  0  0  0  0  0
   33.7577   15.2523    7.8467 H   0  0  0  0  0  0  0  0  0  0  0  0
   35.4725   14.9775    8.2584 H   0  0  0  0  0  0  0  0  0  0  0  0
   35.1687   14.3201    5.7354 H   0  0  0  0  0  0  0  0  0  0  0  0
  1  2  1  0
  2  3  2  0
  2  4  1  0
  4  5  1  0
  5  6  4  0
  6  7  4  0
  7  8  4  0
  8  9  4  0
  9 10  1  0
 10 11  1  0
 11 12  1  0
 12 13  2  0
 12 14  1  0
 14 15  1  0
 14 16  1  0
  9 17  4  0
 17 18  1  0
 18 19  1  0
 19 20  2  0
 19 21  1  0
 21 22  1  0
 17  5  4  0
  1 23  1  0
  1 24  1  0
  1 25  1  0
  4 26  1  0
  6 27  1  0
  7 28  1  0
  8 29  1  0
 11 30  1  0
 11 31  1  0
 15 32  1  0
 15 33  1  0
 15 34  1  0
 16 35  1  0
 16 36  1  0
 16 37  1  0
 18 38  1  0
 21 39  1  0
 21 40  1  0
 22 41  1  0
M  END
$$$$
