LIG
     RDKit          3D

 42 43  0  0  0  0  0  0  0  0999 V2000
   34.5920    9.9920    6.6940 C   0  0  0  0  0  0  0  0  0  0  0  0
   33.3470   10.2740    7.4930 C   0  0  0  0  0  0  0  0  0  0  0  0
   32.6580    9.2460    8.1260 C   0  0  0  0  0  0  0  0  0  0  0  0
   31.5630    9.4800    8.9430 C   0  0  0  0  0  0  0  0  0  0  0  0
   31.1650   10.7950    9.1290 C   0  0  0  0  0  0  0  0  0  0  0  0
   30.5281   12.3067    8.6893 N   0  0  0  0  0  0  0  0  0  0  0  0
   29.7090   12.5130    7.5840 C   0  0  0  0  0  0  0  0  0  0  0  0
   29.9180   12.6920    6.3980 O   0  0  0  0  0  0  0  0  0  0  0  0
   28.7130   13.3600    8.3510 C   0  0  0  0  0  0  0  0  0  0  0  0
   28.5830   14.6820    7.7450 C   0  0  0  0  0  0  0  0  0  0  0  0
   28.5580   15.7160    7.2730 N   0  0  0  0  0  0  0  0  0  0  0  0
   31.8380   11.8440    8.5230 C   0  0  0  0  0  0  0  0  0  0  0  0
   32.8900   11.5720    7.6690 C   0  0  0  0  0  0  0  0  0  0  0  0
   33.3940   12.4720    6.7660 O   0  0  0  0  0  0  0  0  0  0  0  0
   32.5070   13.2300    6.0470 C   0  0  0  0  0  0  0  0  0  0  0  0
   32.8430   14.5690    6.5820 C   0  0  0  0  0  0  0  0  0  0  0  0
   32.2450   15.0040    7.5510 O   0  0  0  0  0  0  0  0  0  0  0  0
   33.9260   15.1770    6.0590 N   0  0  0  0  0  0  0  0  0  0  0  0
   34.7260   15.9040    7.0650 C   0  0  0  0  0  0  0  0  0  0  0  0
   36.2000   15.5640    6.9400 C   0  0  0  0  0  0  0  0  0  0  0  0
   36.6530   15.7410    5.6230 O   0  0  0  0  0  0  0  0  0  0  0  0
   35.9790   14.7950    4.8070 C   0  0  0  0  0  0  0  0  0  0  0  0
   34.5050   15.1130    4.7140 C   0  0  0  0  0  0  0  0  0  0  0  0
   35.4620    9.9352    7.3557 H   0  0  0  0  0  0  0  0  0  0  0  0
   34.4835    9.0484    6.1502 H   0  0  0  0  0  0  0  0  0  0  0  0
   35.0587    9.0515    7.0043 H   0  0  0  0  0  0  0  0  0  0  0  0
   32.9821    8.2025    7.9744 H   0  0  0  0  0  0  0  0  0  0  0  0
   31.0574    8.6469    9.3843 H   0  0  0  0  0  0  0  0  0  0  0  0
   30.5716   12.9804    9.4454 H   0  0  0  0  0  0  0  0  0  0  0  0
   27.7484   12.8383    8.3699 H   0  0  0  0  0  0  0  0  0  0  0  0
   29.0525   13.4438    9.3903 H   0  0  0  0  0  0  0  0  0  0  0  0
   31.5495   12.8738    8.7008 H   0  0  0  0  0  0  0  0  0  0  0  0
   32.7427   13.1932    5.0086 H   0  0  0  0  0  0  0  0  0  0  0  0
   31.4920   13.0134    6.2937 H   0  0  0  0  0  0  0  0  0  0  0  0
   34.5551   16.9716    6.8757 H   0  0  0  0  0  0  0  0  0  0  0  0
   34.3606   15.6763    8.0723 H   0  0  0  0  0  0  0  0  0  0  0  0
   36.3683   14.5249    7.2186 H   0  0  0  0  0  0  0  0  0  0  0  0
   36.7919   16.1968    7.5966 H   0  0  0  0  0  0  0  0  0  0  0  0
   36.1333   13.8088    5.2421 H   0  0  0  0  0  0  0  0  0  0  0  0
   36.4440   14.8078    3.8203 H   0  0  0  0  0  0  0  0  0  0  0  0
   34.3431   16.0565    4.1942 H   0  0  0  0  0  0  0  0  0  0  0  0
   33.9700   14.3184    4.1878 H   0  0  0  0  0  0  0  0  0  0  0  0
  1  2  1  0
  2  3  4  0
  3  4  4  0
  4  5  4  0
  5  6  1  0
  6  7  1  0
  7  8  2  0
  7  9  1  0
  9 10  1  0
 10 11  3  0
  5 12  4  0
 12 13  4  0
 13 14  1  0
 14 15  1  0
 15 16  1  0
 16 17  2  0
 16 18  1  0
 18 19  1  0
 19 20  1  0
 20 21  1  0
 21 22  1  0
 22 23  1  0
 13  2  4  0
 23 18  1  0
  1 24  1  0
  1 25  1  0
  1 26  1  0
  3 27  1  0
  4 28  1  0
  6 29  1  0
  9 30  1  0
  9 31  1  0
 12 32  1  0
 15 33  1  0
 15 34  1  0
 19 35  1  0
 19 36  1  0
 20 37  1  0
 20 38  1  0
 22 39  1  0
 22 40  1  0
 23 41  1  0
 23 42  1  0
M  END
