LIG
     RDKit          3D

 28 28  0  0  0  0  0  0  0  0999 V2000
   -0.5440    2.3951    2.8337 C   0  0  0  0  0  0  0  0  0  0  0  0
    0.1368    1.9847    1.6269 N   0  0  0  0  0  0  0  0  0  0  0  0
    1.1499    2.7413    1.1730 N   0  0  0  0  0  0  0  0  0  0  0  0
    1.5505    2.1015    0.0732 C   0  0  0  0  0  0  0  0  0  0  0  0
    0.7920    0.9376   -0.1838 C   0  0  0  0  0  0  0  0  0  0  0  0
    0.9021    0.0221   -1.2143 N   0  0  0  0  0  0  0  0  0  0  0  0
    1.8416    0.0654   -2.2232 C   0  0  0  0  0  0  0  0  0  0  0  0
    2.7099    0.9249   -2.3542 O   0  0  0  0  0  0  0  0  0  0  0  0
    1.7178   -1.0759   -3.2044 C   0  0  0  0  0  0  0  0  0  0  0  0
    2.5154   -2.2143   -2.7538 C   0  0  0  0  0  0  0  0  0  0  0  0
    3.1209   -3.1422   -2.4071 N   0  0  0  0  0  0  0  0  0  0  0  0
   -0.1324    0.8741    0.8493 C   0  0  0  0  0  0  0  0  0  0  0  0
   -1.1472   -0.0132    1.1871 N   0  0  0  0  0  0  0  0  0  0  0  0
   -1.5082   -1.1458    0.4783 C   0  0  0  0  0  0  0  0  0  0  0  0
   -1.0256   -1.5395   -0.5805 O   0  0  0  0  0  0  0  0  0  0  0  0
   -2.6614   -1.8864    1.1631 C   0  0  0  0  0  0  0  0  0  0  0  0
   -2.7186   -1.6130    2.5607 O   0  0  0  0  0  0  0  0  0  0  0  0
   -0.4261    1.6062    3.5807 H   0  0  0  0  0  0  0  0  0  0  0  0
   -1.5994    2.5524    2.5980 H   0  0  0  0  0  0  0  0  0  0  0  0
   -0.1060    3.3252    3.2055 H   0  0  0  0  0  0  0  0  0  0  0  0
    2.3771    2.5111   -0.4937 H   0  0  0  0  0  0  0  0  0  0  0  0
    0.2302   -0.7462   -1.1819 H   0  0  0  0  0  0  0  0  0  0  0  0
    2.0572   -0.7246   -4.1849 H   0  0  0  0  0  0  0  0  0  0  0  0
    0.6654   -1.3579   -3.3186 H   0  0  0  0  0  0  0  0  0  0  0  0
   -1.6857    0.1458    2.0365 H   0  0  0  0  0  0  0  0  0  0  0  0
   -3.6003   -1.5597    0.7074 H   0  0  0  0  0  0  0  0  0  0  0  0
   -2.5417   -2.9642    1.0180 H   0  0  0  0  0  0  0  0  0  0  0  0
   -2.0701   -2.2048    2.9864 H   0  0  0  0  0  0  0  0  0  0  0  0
  1  2  1  0
  2  3  1  0
  3  4  2  0
  4  5  1  0
  5  6  1  0
  6  7  1  0
  7  8  2  0
  7  9  1  0
  9 10  1  0
 10 11  3  0
  5 12  2  0
 12 13  1  0
 13 14  1  0
 14 15  2  0
 14 16  1  0
 16 17  1  0
 12  2  1  0
  1 18  1  0
  1 19  1  0
  1 20  1  0
  4 21  1  0
  6 22  1  0
  9 23  1  0
  9 24  1  0
 13 25  1  0
 16 26  1  0
 16 27  1  0
 17 28  1  0
M  END
