LIG
     RDKit          3D

 45 46  0  0  0  0  0  0  0  0999 V2000
   31.2078    8.7030    6.1278 C   0  0  0  0  0  0  0  0  0  0  0  0
   32.3808    9.5672    6.3931 C   0  0  0  0  0  0  0  0  0  0  0  0
   33.6663    9.0564    6.5857 C   0  0  0  0  0  0  0  0  0  0  0  0
   34.7502    9.9231    6.8124 C   0  0  0  0  0  0  0  0  0  0  0  0
   36.1234    9.3767    6.9936 C   0  0  0  0  0  0  0  0  0  0  0  0
   34.5136   11.2871    6.9045 C   0  0  0  0  0  0  0  0  0  0  0  0
   35.4867   12.2144    7.0900 O   0  0  0  0  0  0  0  0  0  0  0  0
   35.3152   13.3202    6.2017 C   0  0  0  0  0  0  0  0  0  0  0  0
   34.5490   14.5819    6.6803 C   0  0  0  0  0  0  0  0  0  0  0  0
   33.9446   14.6443    7.7528 O   0  0  0  0  0  0  0  0  0  0  0  0
   34.5697   15.6727    5.8167 N   0  0  0  0  0  0  0  0  0  0  0  0
   34.5812   16.9778    6.4711 C   0  0  0  0  0  0  0  0  0  0  0  0
   36.0493   17.3671    6.7013 C   0  0  0  0  0  0  0  0  0  0  0  0
   36.7666   17.4100    5.4498 O   0  0  0  0  0  0  0  0  0  0  0  0
   36.7252   16.1553    4.7523 C   0  0  0  0  0  0  0  0  0  0  0  0
   35.2802   15.6928    4.5365 C   0  0  0  0  0  0  0  0  0  0  0  0
   33.2360   11.7478    6.8283 C   0  0  0  0  0  0  0  0  0  0  0  0
   32.2079   10.9348    6.4587 C   0  0  0  0  0  0  0  0  0  0  0  0
   30.9631   11.5484    6.4156 N   0  0  0  0  0  0  0  0  0  0  0  0
   30.8100   12.6552    5.5576 C   0  0  0  0  0  0  0  0  0  0  0  0
   30.3591   12.5060    4.4272 O   0  0  0  0  0  0  0  0  0  0  0  0
   31.1874   14.0339    6.1167 C   0  0  0  0  0  0  0  0  0  0  0  0
   30.3260   15.1297    5.6761 C   0  0  0  0  0  0  0  0  0  0  0  0
   29.7033   16.0545    5.3485 N   0  0  0  0  0  0  0  0  0  0  0  0
   30.8433    8.8992    5.1137 H   0  0  0  0  0  0  0  0  0  0  0  0
   31.4606    7.6512    6.1549 H   0  0  0  0  0  0  0  0  0  0  0  0
   30.4199    8.9307    6.8406 H   0  0  0  0  0  0  0  0  0  0  0  0
   33.8401    7.9834    6.5483 H   0  0  0  0  0  0  0  0  0  0  0  0
   36.8387    9.9089    6.3576 H   0  0  0  0  0  0  0  0  0  0  0  0
   36.1760    8.3171    6.7215 H   0  0  0  0  0  0  0  0  0  0  0  0
   36.4333    9.4724    8.0392 H   0  0  0  0  0  0  0  0  0  0  0  0
   34.9067   12.9909    5.2361 H   0  0  0  0  0  0  0  0  0  0  0  0
   36.3405   13.6424    6.0002 H   0  0  0  0  0  0  0  0  0  0  0  0
   34.0944   17.6910    5.7963 H   0  0  0  0  0  0  0  0  0  0  0  0
   34.0329   16.9677    7.4178 H   0  0  0  0  0  0  0  0  0  0  0  0
   36.5558   16.6645    7.3732 H   0  0  0  0  0  0  0  0  0  0  0  0
   36.1062   18.3649    7.1468 H   0  0  0  0  0  0  0  0  0  0  0  0
   37.2202   16.2951    3.7862 H   0  0  0  0  0  0  0  0  0  0  0  0
   37.3140   15.4314    5.3228 H   0  0  0  0  0  0  0  0  0  0  0  0
   34.7533   16.4088    3.8945 H   0  0  0  0  0  0  0  0  0  0  0  0
   35.2473   14.7203    4.0415 H   0  0  0  0  0  0  0  0  0  0  0  0
   33.0325   12.7540    7.1325 H   0  0  0  0  0  0  0  0  0  0  0  0
   30.8437   11.8595    7.3719 H   0  0  0  0  0  0  0  0  0  0  0  0
   31.2762   14.0298    7.2064 H   0  0  0  0  0  0  0  0  0  0  0  0
   32.1770   14.2387    5.7023 H   0  0  0  0  0  0  0  0  0  0  0  0
  1  2  1  0
  2  3  2  0
  3  4  1  0
  4  5  1  0
  4  6  2  0
  6  7  1  0
  7  8  1  0
  8  9  1  0
  9 10  2  0
  9 11  1  0
 11 12  1  0
 12 13  1  0
 13 14  1  0
 14 15  1  0
 15 16  1  0
  6 17  1  0
 17 18  2  0
 18 19  1  0
 19 20  1  0
 20 21  2  0
 20 22  1  0
 22 23  1  0
 23 24  3  0
 18  2  1  0
 16 11  1  0
  1 25  1  0
  1 26  1  0
  1 27  1  0
  3 28  1  0
  5 29  1  0
  5 30  1  0
  5 31  1  0
  8 32  1  0
  8 33  1  0
 12 34  1  0
 12 35  1  0
 13 36  1  0
 13 37  1  0
 15 38  1  0
 15 39  1  0
 16 40  1  0
 16 41  1  0
 17 42  1  0
 19 43  1  0
 22 44  1  0
 22 45  1  0
M  END
