LIG
     RDKit          3D

 33 33  0  0  0  0  0  0  0  0999 V2000
   30.7973   15.6579   11.3591 C   0  0  0  0  0  0  0  0  0  0  0  0
   29.8025   14.9583   10.5617 N   0  0  0  0  0  0  0  0  0  0  0  0
   28.5565   14.6573   11.2089 C   0  0  0  0  0  0  0  0  0  0  0  0
   30.3057   14.0618    9.6256 C   0  0  0  0  0  0  0  0  0  0  0  0
   31.5252   13.9559    9.5102 O   0  0  0  0  0  0  0  0  0  0  0  0
   29.3117   13.3164    8.6904 C   0  0  0  0  0  0  0  0  0  0  0  0
   29.4918   11.9353    8.4213 O   0  0  0  0  0  0  0  0  0  0  0  0
   30.5856   11.5254    7.7323 C   0  0  0  0  0  0  0  0  0  0  0  0
   30.7949   10.1589    7.5867 C   0  0  0  0  0  0  0  0  0  0  0  0
   31.8033    9.6104    6.8580 N   0  0  0  0  0  0  0  0  0  0  0  0
   32.7283   10.4587    6.3680 C   0  0  0  0  0  0  0  0  0  0  0  0
   32.6697   11.8210    6.5867 C   0  0  0  0  0  0  0  0  0  0  0  0
   33.7675   12.6660    6.3680 N   0  0  0  0  0  0  0  0  0  0  0  0
   34.3118   13.3375    7.4640 C   0  0  0  0  0  0  0  0  0  0  0  0
   34.0148   13.0920    8.6365 O   0  0  0  0  0  0  0  0  0  0  0  0
   35.3421   14.3978    7.1557 C   0  0  0  0  0  0  0  0  0  0  0  0
   35.6701   14.6233    5.3910 S   0  0  0  0  0  0  0  0  0  0  0  0
   31.5318   12.3585    7.1740 C   0  0  0  0  0  0  0  0  0  0  0  0
   31.6451   15.9776   10.7477 H   0  0  0  0  0  0  0  0  0  0  0  0
   31.1528   14.9821   12.1271 H   0  0  0  0  0  0  0  0  0  0  0  0
   30.3712   16.5392   11.8376 H   0  0  0  0  0  0  0  0  0  0  0  0
   27.7407   14.9348   10.5391 H   0  0  0  0  0  0  0  0  0  0  0  0
   28.4900   15.1995   12.1526 H   0  0  0  0  0  0  0  0  0  0  0  0
   28.4699   13.5990   11.4335 H   0  0  0  0  0  0  0  0  0  0  0  0
   28.2990   13.3976    9.0894 H   0  0  0  0  0  0  0  0  0  0  0  0
   29.2735   13.8771    7.7465 H   0  0  0  0  0  0  0  0  0  0  0  0
   30.1115    9.4372    8.0292 H   0  0  0  0  0  0  0  0  0  0  0  0
   33.5742    9.9854    5.8811 H   0  0  0  0  0  0  0  0  0  0  0  0
   34.4919   12.3647    5.7226 H   0  0  0  0  0  0  0  0  0  0  0  0
   34.9752   15.3386    7.5654 H   0  0  0  0  0  0  0  0  0  0  0  0
   36.2726   14.1198    7.6569 H   0  0  0  0  0  0  0  0  0  0  0  0
   35.6246   15.9726    5.3980 H   0  0  0  0  0  0  0  0  0  0  0  0
   31.4696   13.4345    7.2516 H   0  0  0  0  0  0  0  0  0  0  0  0
  1  2  1  0
  2  3  1  0
  2  4  1  0
  4  5  2  0
  4  6  1  0
  6  7  1  0
  7  8  1  0
  8  9  2  0
  9 10  1  0
 10 11  2  0
 11 12  1  0
 12 13  1  0
 13 14  1  0
 14 15  2  0
 14 16  1  0
 16 17  1  0
 12 18  2  0
 18  8  1  0
  1 19  1  0
  1 20  1  0
  1 21  1  0
  3 22  1  0
  3 23  1  0
  3 24  1  0
  6 25  1  0
  6 26  1  0
  9 27  1  0
 11 28  1  0
 13 29  1  0
 16 30  1  0
 16 31  1  0
 17 32  1  0
 18 33  1  0
M  END
