LIG
     RDKit          3D

 35 36  0  0  0  0  0  0  0  0999 V2000
   34.0731    9.0458    5.4808 C   0  0  0  0  0  0  0  0  0  0  0  0
   33.0075    9.7595    6.1262 N   0  0  0  0  0  0  0  0  0  0  0  0
   32.1657    9.0811    6.9168 N   0  0  0  0  0  0  0  0  0  0  0  0
   31.3801   10.0276    7.4264 C   0  0  0  0  0  0  0  0  0  0  0  0
   31.7371   11.3173    6.9691 C   0  0  0  0  0  0  0  0  0  0  0  0
   31.1802   12.5203    7.3834 N   0  0  0  0  0  0  0  0  0  0  0  0
   29.8006   12.6311    7.4109 C   0  0  0  0  0  0  0  0  0  0  0  0
   29.0862   12.1805    6.5190 O   0  0  0  0  0  0  0  0  0  0  0  0
   29.2514   13.4272    8.5622 C   0  0  0  0  0  0  0  0  0  0  0  0
   28.8248   14.7361    8.1027 C   0  0  0  0  0  0  0  0  0  0  0  0
   28.5662   15.8132    7.7658 N   0  0  0  0  0  0  0  0  0  0  0  0
   32.7442   11.1060    6.0419 C   0  0  0  0  0  0  0  0  0  0  0  0
   33.3943   11.8769    5.0932 N   0  0  0  0  0  0  0  0  0  0  0  0
   33.0759   13.1787    4.7832 C   0  0  0  0  0  0  0  0  0  0  0  0
   32.5464   13.9862    5.5379 O   0  0  0  0  0  0  0  0  0  0  0  0
   33.3288   13.4369    3.2882 C   0  0  0  0  0  0  0  0  0  0  0  0
   33.6000   14.8764    2.9205 C   0  0  0  0  0  0  0  0  0  0  0  0
   34.3034   14.7171    1.5955 C   0  0  0  0  0  0  0  0  0  0  0  0
   35.1425   13.4795    1.8308 C   0  0  0  0  0  0  0  0  0  0  0  0
   34.4186   12.6560    2.7603 O   0  0  0  0  0  0  0  0  0  0  0  0
   34.4510    8.2862    6.1586 H   0  0  0  0  0  0  0  0  0  0  0  0
   34.8987    9.7262    5.2592 H   0  0  0  0  0  0  0  0  0  0  0  0
   33.7054    8.6156    4.5508 H   0  0  0  0  0  0  0  0  0  0  0  0
   30.6014    9.7424    8.1246 H   0  0  0  0  0  0  0  0  0  0  0  0
   31.6359   13.3258    6.9474 H   0  0  0  0  0  0  0  0  0  0  0  0
   30.0185   13.5356    9.3358 H   0  0  0  0  0  0  0  0  0  0  0  0
   28.4155   12.8755    8.9968 H   0  0  0  0  0  0  0  0  0  0  0  0
   33.9946   11.4241    4.4074 H   0  0  0  0  0  0  0  0  0  0  0  0
   32.4258   13.0928    2.7655 H   0  0  0  0  0  0  0  0  0  0  0  0
   34.2706   15.3459    3.6498 H   0  0  0  0  0  0  0  0  0  0  0  0
   32.6901   15.4794    2.8556 H   0  0  0  0  0  0  0  0  0  0  0  0
   34.8983   15.5874    1.3066 H   0  0  0  0  0  0  0  0  0  0  0  0
   33.5679   14.5263    0.8049 H   0  0  0  0  0  0  0  0  0  0  0  0
   35.3317   12.9180    0.9117 H   0  0  0  0  0  0  0  0  0  0  0  0
   36.1034   13.7332    2.2909 H   0  0  0  0  0  0  0  0  0  0  0  0
  1  2  1  0
  2  3  1  0
  3  4  2  0
  4  5  1  0
  5  6  1  0
  6  7  1  0
  7  8  2  0
  7  9  1  0
  9 10  1  0
 10 11  3  0
  5 12  2  0
 12 13  1  0
 13 14  1  0
 14 15  2  0
 14 16  1  0
 16 17  1  0
 17 18  1  0
 18 19  1  0
 19 20  1  0
 12  2  1  0
 20 16  1  0
  1 21  1  0
  1 22  1  0
  1 23  1  0
  4 24  1  0
  6 25  1  0
  9 26  1  0
  9 27  1  0
 13 28  1  0
 16 29  1  0
 17 30  1  0
 17 31  1  0
 18 32  1  0
 18 33  1  0
 19 34  1  0
 19 35  1  0
M  END
