LIG
     RDKit          3D

 44 44  0  0  0  0  0  0  0  0999 V2000
   28.3004   13.7939    5.5249 C   0  0  0  0  0  0  0  0  0  0  0  0
   29.7705   13.6977    5.2104 C   0  0  0  0  0  0  0  0  0  0  0  0
   30.3469   14.5628    4.5625 O   0  0  0  0  0  0  0  0  0  0  0  0
   30.3590   12.6020    5.8028 N   0  0  0  0  0  0  0  0  0  0  0  0
   31.6951   12.5385    6.2736 C   0  0  0  0  0  0  0  0  0  0  0  0
   32.7681   13.3094    5.8196 C   0  0  0  0  0  0  0  0  0  0  0  0
   33.0517   13.5619    4.3740 C   0  0  0  0  0  0  0  0  0  0  0  0
   34.4305   13.3654    3.9268 N   0  0  0  0  0  0  0  0  0  0  0  0
   35.5597   12.3488    4.6037 S   0  0  0  0  0  0  0  0  0  0  0  0
   34.6530   10.8532    4.9519 C   0  0  0  0  0  0  0  0  0  0  0  0
   36.0611   12.9401    5.8190 O   0  0  0  0  0  0  0  0  0  0  0  0
   36.4638   12.0510    3.5165 O   0  0  0  0  0  0  0  0  0  0  0  0
   33.6243   13.8616    6.7828 C   0  0  0  0  0  0  0  0  0  0  0  0
   33.3204   13.7452    8.1239 C   0  0  0  0  0  0  0  0  0  0  0  0
   32.2397   12.9575    8.4485 C   0  0  0  0  0  0  0  0  0  0  0  0
   31.4517   13.4106    9.4762 O   0  0  0  0  0  0  0  0  0  0  0  0
   30.2342   13.9383    8.9352 C   0  0  0  0  0  0  0  0  0  0  0  0
   29.3035   14.4027   10.0069 C   0  0  0  0  0  0  0  0  0  0  0  0
   28.0915   14.1716    9.9228 O   0  0  0  0  0  0  0  0  0  0  0  0
   29.8533   15.1100   11.0523 N   0  0  0  0  0  0  0  0  0  0  0  0
   29.1416   15.0287   12.2790 C   0  0  0  0  0  0  0  0  0  0  0  0
   31.1561   15.7444   11.1076 C   0  0  0  0  0  0  0  0  0  0  0  0
   31.7502   12.0373    7.5521 C   0  0  0  0  0  0  0  0  0  0  0  0
   30.7016   10.5504    8.0811 Br  0  0  0  0  0  0  0  0  0  0  0  0
   28.1643   14.5647    6.2872 H   0  0  0  0  0  0  0  0  0  0  0  0
   27.8901   12.8601    5.9175 H   0  0  0  0  0  0  0  0  0  0  0  0
   27.7533   14.0536    4.6153 H   0  0  0  0  0  0  0  0  0  0  0  0
   29.7256   12.0092    6.3364 H   0  0  0  0  0  0  0  0  0  0  0  0
   32.4194   12.9229    3.7471 H   0  0  0  0  0  0  0  0  0  0  0  0
   32.7881   14.5983    4.1399 H   0  0  0  0  0  0  0  0  0  0  0  0
   34.6112   13.5308    2.9361 H   0  0  0  0  0  0  0  0  0  0  0  0
   35.3712   10.0353    5.0278 H   0  0  0  0  0  0  0  0  0  0  0  0
   33.9777   10.6452    4.1194 H   0  0  0  0  0  0  0  0  0  0  0  0
   34.1117   10.9443    5.8899 H   0  0  0  0  0  0  0  0  0  0  0  0
   34.4419   14.5245    6.4884 H   0  0  0  0  0  0  0  0  0  0  0  0
   33.8171   14.3868    8.8411 H   0  0  0  0  0  0  0  0  0  0  0  0
   29.6637   13.1816    8.3912 H   0  0  0  0  0  0  0  0  0  0  0  0
   30.4240   14.7838    8.2776 H   0  0  0  0  0  0  0  0  0  0  0  0
   29.6657   14.3198   12.9103 H   0  0  0  0  0  0  0  0  0  0  0  0
   29.0812   16.0130   12.7340 H   0  0  0  0  0  0  0  0  0  0  0  0
   28.1418   14.6534   12.1211 H   0  0  0  0  0  0  0  0  0  0  0  0
   31.7178   15.3539   11.9496 H   0  0  0  0  0  0  0  0  0  0  0  0
   31.0168   16.8157   11.2745 H   0  0  0  0  0  0  0  0  0  0  0  0
   31.7387   15.6107   10.2021 H   0  0  0  0  0  0  0  0  0  0  0  0
  1  2  1  0
  2  3  2  0
  2  4  1  0
  4  5  1  0
  5  6  2  0
  6  7  1  0
  7  8  1  0
  8  9  1  0
  9 10  1  0
  9 11  2  0
  9 12  2  0
  6 13  1  0
 13 14  2  0
 14 15  1  0
 15 16  1  0
 16 17  1  0
 17 18  1  0
 18 19  2  0
 18 20  1  0
 20 21  1  0
 20 22  1  0
 15 23  2  0
 23 24  1  0
 23  5  1  0
  1 25  1  0
  1 26  1  0
  1 27  1  0
  4 28  1  0
  7 29  1  0
  7 30  1  0
  8 31  1  0
 10 32  1  0
 10 33  1  0
 10 34  1  0
 13 35  1  0
 14 36  1  0
 17 37  1  0
 17 38  1  0
 21 39  1  0
 21 40  1  0
 21 41  1  0
 22 42  1  0
 22 43  1  0
 22 44  1  0
M  END
