LIG
     RDKit          3D

 41 42  0  0  0  0  0  0  0  0999 V2000
   35.3569    8.7984    3.3639 C   0  0  0  0  0  0  0  0  0  0  0  0
   35.6119   10.2081    3.7995 C   0  0  0  0  0  0  0  0  0  0  0  0
   36.6315   10.8170    3.4734 O   0  0  0  0  0  0  0  0  0  0  0  0
   34.6930   10.8681    4.5261 N   0  0  0  0  0  0  0  0  0  0  0  0
   33.6788   10.4266    5.3579 C   0  0  0  0  0  0  0  0  0  0  0  0
   33.5123    9.1503    5.8434 C   0  0  0  0  0  0  0  0  0  0  0  0
   32.5209    8.8922    6.7713 C   0  0  0  0  0  0  0  0  0  0  0  0
   31.7826    9.9321    7.3059 C   0  0  0  0  0  0  0  0  0  0  0  0
   30.8167    9.5996    8.3744 C   0  0  0  0  0  0  0  0  0  0  0  0
   31.9634   11.2144    6.8192 C   0  0  0  0  0  0  0  0  0  0  0  0
   31.2772   12.2339    7.3771 O   0  0  0  0  0  0  0  0  0  0  0  0
   31.8108   13.5212    7.1404 C   0  0  0  0  0  0  0  0  0  0  0  0
   33.2167   13.7585    7.7112 C   0  0  0  0  0  0  0  0  0  0  0  0
   33.3388   13.7214    8.9394 O   0  0  0  0  0  0  0  0  0  0  0  0
   34.3158   13.9430    6.8667 N   0  0  0  0  0  0  0  0  0  0  0  0
   35.6055   14.0418    7.5425 C   0  0  0  0  0  0  0  0  0  0  0  0
   36.7218   13.6564    6.5773 C   0  0  0  0  0  0  0  0  0  0  0  0
   36.7791   14.5973    5.4960 O   0  0  0  0  0  0  0  0  0  0  0  0
   35.5642   14.5586    4.7418 C   0  0  0  0  0  0  0  0  0  0  0  0
   34.3054   14.7072    5.6158 C   0  0  0  0  0  0  0  0  0  0  0  0
   32.8443   11.4240    5.7884 C   0  0  0  0  0  0  0  0  0  0  0  0
   35.7911    8.0986    4.0813 H   0  0  0  0  0  0  0  0  0  0  0  0
   35.8408    8.6413    2.3943 H   0  0  0  0  0  0  0  0  0  0  0  0
   34.2915    8.6033    3.2209 H   0  0  0  0  0  0  0  0  0  0  0  0
   34.9448   11.8394    4.6268 H   0  0  0  0  0  0  0  0  0  0  0  0
   34.1805    8.3510    5.5657 H   0  0  0  0  0  0  0  0  0  0  0  0
   32.3785    7.8912    7.1617 H   0  0  0  0  0  0  0  0  0  0  0  0
   29.8871    9.2251    7.9381 H   0  0  0  0  0  0  0  0  0  0  0  0
   31.1963    8.8182    9.0395 H   0  0  0  0  0  0  0  0  0  0  0  0
   30.5721   10.4662    8.9896 H   0  0  0  0  0  0  0  0  0  0  0  0
   31.6957   13.8068    6.0932 H   0  0  0  0  0  0  0  0  0  0  0  0
   31.1511   14.1781    7.7164 H   0  0  0  0  0  0  0  0  0  0  0  0
   35.6321   13.4089    8.4324 H   0  0  0  0  0  0  0  0  0  0  0  0
   35.7144   15.0769    7.8777 H   0  0  0  0  0  0  0  0  0  0  0  0
   36.5732   12.6541    6.1614 H   0  0  0  0  0  0  0  0  0  0  0  0
   37.6908   13.6497    7.0841 H   0  0  0  0  0  0  0  0  0  0  0  0
   35.5434   13.6288    4.1713 H   0  0  0  0  0  0  0  0  0  0  0  0
   35.6003   15.3693    4.0067 H   0  0  0  0  0  0  0  0  0  0  0  0
   34.2837   15.7318    5.9601 H   0  0  0  0  0  0  0  0  0  0  0  0
   33.4011   14.5224    5.0349 H   0  0  0  0  0  0  0  0  0  0  0  0
   32.9249   12.3779    5.2941 H   0  0  0  0  0  0  0  0  0  0  0  0
  1  2  1  0
  2  3  2  0
  2  4  1  0
  4  5  1  0
  5  6  2  0
  6  7  1  0
  7  8  2  0
  8  9  1  0
  8 10  1  0
 10 11  1  0
 11 12  1  0
 12 13  1  0
 13 14  2  0
 13 15  1  0
 15 16  1  0
 16 17  1  0
 17 18  1  0
 18 19  1  0
 19 20  1  0
 10 21  2  0
 21  5  1  0
 20 15  1  0
  1 22  1  0
  1 23  1  0
  1 24  1  0
  4 25  1  0
  6 26  1  0
  7 27  1  0
  9 28  1  0
  9 29  1  0
  9 30  1  0
 12 31  1  0
 12 32  1  0
 16 33  1  0
 16 34  1  0
 17 35  1  0
 17 36  1  0
 19 37  1  0
 19 38  1  0
 20 39  1  0
 20 40  1  0
 21 41  1  0
M  END
