LIG
     RDKit          3D

 40 40  0  0  0  0  0  0  0  0999 V2000
   33.8033   10.1184    5.0841 C   0  0  0  0  0  0  0  0  0  0  0  0
   32.7700   10.5846    6.0569 C   0  0  0  0  0  0  0  0  0  0  0  0
   31.9701    9.6657    6.7376 C   0  0  0  0  0  0  0  0  0  0  0  0
   30.9742   10.0836    7.6400 C   0  0  0  0  0  0  0  0  0  0  0  0
   30.2644    9.0321    8.4440 C   0  0  0  0  0  0  0  0  0  0  0  0
   30.6738   11.4490    7.7428 C   0  0  0  0  0  0  0  0  0  0  0  0
   29.6004   11.8236    8.4898 O   0  0  0  0  0  0  0  0  0  0  0  0
   29.3466   13.2043    8.7187 C   0  0  0  0  0  0  0  0  0  0  0  0
   30.3225   14.0105    9.6249 C   0  0  0  0  0  0  0  0  0  0  0  0
   31.5448   13.9303    9.5148 O   0  0  0  0  0  0  0  0  0  0  0  0
   29.8018   14.9218   10.5390 N   0  0  0  0  0  0  0  0  0  0  0  0
   30.7843   15.6349   11.3411 C   0  0  0  0  0  0  0  0  0  0  0  0
   28.5385   14.6459   11.1616 C   0  0  0  0  0  0  0  0  0  0  0  0
   31.5132   12.3523    7.1183 C   0  0  0  0  0  0  0  0  0  0  0  0
   32.6285   11.9183    6.4125 C   0  0  0  0  0  0  0  0  0  0  0  0
   33.6663   12.8461    6.2305 N   0  0  0  0  0  0  0  0  0  0  0  0
   34.2686   13.3892    7.3734 C   0  0  0  0  0  0  0  0  0  0  0  0
   33.9978   13.0653    8.5332 O   0  0  0  0  0  0  0  0  0  0  0  0
   35.3076   14.4557    7.1174 C   0  0  0  0  0  0  0  0  0  0  0  0
   35.7590   14.6429    5.3739 S   0  0  0  0  0  0  0  0  0  0  0  0
   33.6952    9.0524    4.8608 H   0  0  0  0  0  0  0  0  0  0  0  0
   33.7037   10.6615    4.1385 H   0  0  0  0  0  0  0  0  0  0  0  0
   34.8099   10.2758    5.4801 H   0  0  0  0  0  0  0  0  0  0  0  0
   32.1571    8.6001    6.6130 H   0  0  0  0  0  0  0  0  0  0  0  0
   30.8809    8.1329    8.5304 H   0  0  0  0  0  0  0  0  0  0  0  0
   30.0915    9.3764    9.4654 H   0  0  0  0  0  0  0  0  0  0  0  0
   29.3201    8.7518    7.9768 H   0  0  0  0  0  0  0  0  0  0  0  0
   28.3381   13.2436    9.1345 H   0  0  0  0  0  0  0  0  0  0  0  0
   29.2609   13.7391    7.7633 H   0  0  0  0  0  0  0  0  0  0  0  0
   30.3513   16.5181   11.8088 H   0  0  0  0  0  0  0  0  0  0  0  0
   31.1324   14.9680   12.1204 H   0  0  0  0  0  0  0  0  0  0  0  0
   31.6386   15.9517   10.7373 H   0  0  0  0  0  0  0  0  0  0  0  0
   27.7428   14.9430   10.4757 H   0  0  0  0  0  0  0  0  0  0  0  0
   28.4233   13.5895   11.3847 H   0  0  0  0  0  0  0  0  0  0  0  0
   28.4676   15.1863   12.1058 H   0  0  0  0  0  0  0  0  0  0  0  0
   31.3996   13.4203    7.2387 H   0  0  0  0  0  0  0  0  0  0  0  0
   34.3606   12.6584    5.5135 H   0  0  0  0  0  0  0  0  0  0  0  0
   36.2040   14.1981    7.6872 H   0  0  0  0  0  0  0  0  0  0  0  0
   34.9052   15.4006    7.4808 H   0  0  0  0  0  0  0  0  0  0  0  0
   35.6771   15.9899    5.3452 H   0  0  0  0  0  0  0  0  0  0  0  0
  1  2  1  0
  2  3  2  0
  3  4  1  0
  4  5  1  0
  4  6  2  0
  6  7  1  0
  7  8  1  0
  8  9  1  0
  9 10  2  0
  9 11  1  0
 11 12  1  0
 11 13  1  0
  6 14  1  0
 14 15  2  0
 15 16  1  0
 16 17  1  0
 17 18  2  0
 17 19  1  0
 19 20  1  0
 15  2  1  0
  1 21  1  0
  1 22  1  0
  1 23  1  0
  3 24  1  0
  5 25  1  0
  5 26  1  0
  5 27  1  0
  8 28  1  0
  8 29  1  0
 12 30  1  0
 12 31  1  0
 12 32  1  0
 13 33  1  0
 13 34  1  0
 13 35  1  0
 14 36  1  0
 16 37  1  0
 19 38  1  0
 19 39  1  0
 20 40  1  0
M  END
