LIG
     RDKit          3D

 35 36  0  0  0  0  0  0  0  0999 V2000
    5.8350    3.9357    1.0856 N   0  0  0  0  0  0  0  0  0  0  0  0
    5.4406    3.3278    0.1791 C   0  0  0  0  0  0  0  0  0  0  0  0
    4.9930    2.5358   -0.9638 C   0  0  0  0  0  0  0  0  0  0  0  0
    3.6563    1.8977   -0.6609 C   0  0  0  0  0  0  0  0  0  0  0  0
    2.6103    2.4850   -0.9227 O   0  0  0  0  0  0  0  0  0  0  0  0
    3.7605    0.6404   -0.0917 N   0  0  0  0  0  0  0  0  0  0  0  0
    2.7074   -0.2174    0.3044 C   0  0  0  0  0  0  0  0  0  0  0  0
    1.3482    0.0783    0.1751 C   0  0  0  0  0  0  0  0  0  0  0  0
    0.3687   -0.8387    0.5958 C   0  0  0  0  0  0  0  0  0  0  0  0
   -0.9745   -0.4568    0.4320 N   0  0  0  0  0  0  0  0  0  0  0  0
   -2.1173   -1.1894    0.7060 C   0  0  0  0  0  0  0  0  0  0  0  0
   -2.1678   -2.3315    1.1513 O   0  0  0  0  0  0  0  0  0  0  0  0
   -3.3873   -0.3652    0.4342 C   0  0  0  0  0  0  0  0  0  0  0  0
   -4.5293   -1.2150   -0.1000 C   0  0  0  0  0  0  0  0  0  0  0  0
   -5.2737   -0.2420   -0.9782 C   0  0  0  0  0  0  0  0  0  0  0  0
   -4.1445    0.5756   -1.5602 C   0  0  0  0  0  0  0  0  0  0  0  0
   -3.1527    0.6823   -0.5295 O   0  0  0  0  0  0  0  0  0  0  0  0
    0.7636   -2.0584    1.1519 C   0  0  0  0  0  0  0  0  0  0  0  0
    2.1185   -2.3644    1.2862 C   0  0  0  0  0  0  0  0  0  0  0  0
    3.0717   -1.4472    0.8638 C   0  0  0  0  0  0  0  0  0  0  0  0
    4.3733   -1.7513    0.9939 F   0  0  0  0  0  0  0  0  0  0  0  0
    4.8804    3.1631   -1.8548 H   0  0  0  0  0  0  0  0  0  0  0  0
    5.7281    1.7633   -1.2145 H   0  0  0  0  0  0  0  0  0  0  0  0
    4.6876    0.2681    0.0983 H   0  0  0  0  0  0  0  0  0  0  0  0
    1.0261    1.0228   -0.2514 H   0  0  0  0  0  0  0  0  0  0  0  0
   -1.1584    0.4503    0.0051 H   0  0  0  0  0  0  0  0  0  0  0  0
   -3.6729    0.1218    1.3740 H   0  0  0  0  0  0  0  0  0  0  0  0
   -4.1527   -2.0494   -0.7045 H   0  0  0  0  0  0  0  0  0  0  0  0
   -5.1488   -1.6363    0.6972 H   0  0  0  0  0  0  0  0  0  0  0  0
   -5.9176    0.3947   -0.3601 H   0  0  0  0  0  0  0  0  0  0  0  0
   -5.8923   -0.7225   -1.7404 H   0  0  0  0  0  0  0  0  0  0  0  0
   -3.6863    0.0697   -2.4170 H   0  0  0  0  0  0  0  0  0  0  0  0
   -4.4622    1.5745   -1.8711 H   0  0  0  0  0  0  0  0  0  0  0  0
    0.0391   -2.7913    1.4940 H   0  0  0  0  0  0  0  0  0  0  0  0
    2.4299   -3.3102    1.7179 H   0  0  0  0  0  0  0  0  0  0  0  0
  1  2  3  0
  2  3  1  0
  3  4  1  0
  4  5  2  0
  4  6  1  0
  6  7  1  0
  7  8  2  0
  8  9  1  0
  9 10  1  0
 10 11  1  0
 11 12  2  0
 11 13  1  0
 13 14  1  0
 14 15  1  0
 15 16  1  0
 16 17  1  0
  9 18  2  0
 18 19  1  0
 19 20  2  0
 20 21  1  0
 20  7  1  0
 17 13  1  0
  3 22  1  0
  3 23  1  0
  6 24  1  0
  8 25  1  0
 10 26  1  0
 13 27  1  0
 14 28  1  0
 14 29  1  0
 15 30  1  0
 15 31  1  0
 16 32  1  0
 16 33  1  0
 18 34  1  0
 19 35  1  0
M  END
